@<TRIPOS>MOLECULE
PEA
 20 20 0 0 0
SMALL
GASTEIGER

@<TRIPOS>ATOM
      1 N          94.8930   80.2770  -13.8970 N.3     1  PEA        -0.3297
      2 C6'        94.8120   78.2330  -17.7540 C.ar    1  PEA        -0.0585
      3 C5'        94.6460   77.7290  -19.0430 C.ar    1  PEA        -0.0615
      4 C4'        93.5850   76.8640  -19.3160 C.ar    1  PEA        -0.0617
      5 C3'        92.7040   76.5110  -18.3000 C.ar    1  PEA        -0.0615
      6 C2'        92.8830   77.0210  -17.0150 C.ar    1  PEA        -0.0585
      7 C1'        93.9350   77.8830  -16.7310 C.ar    1  PEA        -0.0462
      8 C1         94.6600   79.8400  -15.2930 C.3     1  PEA        -0.0029
      9 C2         94.1270   78.4200  -15.3370 C.3     1  PEA        -0.0153
     10 H          95.2502   81.2324  -13.8949 H       1  PEA         0.1182
     11 H          95.5739   79.6585  -13.4563 H       1  PEA         0.1182
     12 H          95.5957   78.8744  -17.5553 H       1  PEA         0.0620
     13 H          95.3045   77.9942  -19.7920 H       1  PEA         0.0618
     14 H          93.4550   76.4880  -20.2682 H       1  PEA         0.0618
     15 H          91.9181   75.8718  -18.4970 H       1  PEA         0.0618
     16 H          92.2258   76.7549  -16.2652 H       1  PEA         0.0620
     17 H          95.5833   79.8840  -15.8320 H       1  PEA         0.0425
     18 H          93.9351   80.4899  -15.7370 H       1  PEA         0.0425
     19 H          94.8181   77.7847  -14.8235 H       1  PEA         0.0325
     20 H          93.1621   78.4360  -14.8748 H       1  PEA         0.0325
@<TRIPOS>BOND
     1     1     8    1
     2     1    10    1
     3     1    11    1
     4     2     3   ar
     5     2     7   ar
     6     2    12    1
     7     3     4   ar
     8     3    13    1
     9     4     5   ar
    10     4    14    1
    11     5     6   ar
    12     5    15    1
    13     6     7   ar
    14     6    16    1
    15     7     9    1
    16     8     9    1
    17     8    17    1
    18     8    18    1
    19     9    19    1
    20     9    20    1
