REMARK  5 active torsions:
REMARK  status: ('A' for Active; 'I' for Inactive)
REMARK    1  A    between atoms: C10_4  and  C11_1 
REMARK    2  A    between atoms: C10_4  and  C9_5 
REMARK    3  A    between atoms: C8_6  and  C9_5 
REMARK    4  A    between atoms: C7_7  and  C8_6 
REMARK    5  A    between atoms: C2_8  and  C7_7 
ROOT
HETATM    1  C2  BTN A 201      36.190  -6.590 -27.246  1.00 17.34     0.072 C 
HETATM    2  S1  BTN A 201      35.291  -5.207 -27.897  1.00 19.00    -0.160 SA
HETATM    3  C6  BTN A 201      36.290  -4.011 -27.088  1.00 16.24     0.101 C 
HETATM    4  C5  BTN A 201      37.699  -4.610 -27.096  1.00 17.48     0.119 A 
HETATM    5  N1  BTN A 201      38.413  -4.122 -28.261  1.00 19.51    -0.336 N 
ATOM      6  H1  BTN A 201      38.668  -3.146 -28.413  1.00  0.00     0.164 HD
HETATM    7  C3  BTN A 201      38.716  -5.197 -29.178  1.00 17.89     0.316 A 
HETATM    8  O3  BTN A 201      39.263  -5.064 -30.283  1.00 17.24    -0.247 OA
HETATM    9  N2  BTN A 201      38.268  -6.431 -28.563  1.00 14.89    -0.335 N 
ATOM     10  H2  BTN A 201      38.369  -7.360 -28.971  1.00  0.00     0.164 HD
HETATM   11  C4  BTN A 201      37.650  -6.143 -27.270  1.00 15.62     0.123 A 
ENDROOT
BRANCH   1  12
HETATM   12  C7  BTN A 201      35.939  -7.886 -28.013  1.00 15.74     0.017 C 
BRANCH  12  13
HETATM   13  C8  BTN A 201      34.498  -8.341 -27.785  1.00 15.56     0.002 C 
BRANCH  13  14
HETATM   14  C9  BTN A 201      34.260  -9.752 -28.322  1.00 14.16     0.010 C 
BRANCH  14  15
HETATM   15  C10 BTN A 201      32.830 -10.246 -28.064  1.00 15.79     0.113 C 
BRANCH  15  16
HETATM   16  C11 BTN A 201      32.624 -10.661 -26.608  1.00 16.15     0.172 C 
HETATM   17  O11 BTN A 201      31.502 -10.500 -26.093  1.00 12.94    -0.648 OA
HETATM   18  O12 BTN A 201      33.567 -11.168 -25.981  1.00 18.33    -0.648 OA
ENDBRANCH  15  16
ENDBRANCH  14  15
ENDBRANCH  13  14
ENDBRANCH  12  13
ENDBRANCH   1  12
TORSDOF 5
