PEA
  -OEChem-06042117583D

 21 21  0  0  0  0  0  0  0  0999 V2000
    0.0951   -0.0016    0.3545 C   0  0  0  1  0  0  0  0  0  0  0  0
    0.7684    1.1991    0.1916 C   0  0  0  1  0  0  0  0  0  0  0  0
    2.1101    1.1998   -0.1401 C   0  0  0  1  0  0  0  0  0  0  0  0
    2.7838   -0.0004   -0.3045 C   0  0  0  1  0  0  0  0  0  0  0  0
    2.1127   -1.1977   -0.1421 C   0  0  0  1  0  0  0  0  0  0  0  0
    0.7670   -1.1982    0.1905 C   0  0  0  1  0  0  0  0  0  0  0  0
   -1.3726   -0.0029    0.7112 C   0  0  0  1  0  0  0  0  0  0  0  0
   -2.2801    0.1287   -0.5010 C   0  0  0  1  0  0  0  0  0  0  0  0
   -3.7245    0.1460   -0.1204 N   0  3  0  1  0  0  0  0  0  0  0  0
    0.2638    2.0996    0.3189 H   0  0  0  1  0  0  0  0  0  0  0  0
    2.6141    2.1007   -0.2662 H   0  0  0  1  0  0  0  0  0  0  0  0
    3.7944    0.0000   -0.5501 H   0  0  0  1  0  0  0  0  0  0  0  0
    2.6173   -2.0982   -0.2694 H   0  0  0  1  0  0  0  0  0  0  0  0
    0.2629   -2.0991    0.3167 H   0  0  0  1  0  0  0  0  0  0  0  0
   -1.5636    0.8180    1.3704 H   0  0  0  1  0  0  0  0  0  0  0  0
   -1.6012   -0.9218    1.2096 H   0  0  0  1  0  0  0  0  0  0  0  0
   -2.1053   -0.7001   -1.1547 H   0  0  0  1  0  0  0  0  0  0  0  0
   -2.0463    1.0405   -1.0099 H   0  0  0  1  0  0  0  0  0  0  0  0
   -4.0022   -0.7987    0.2442 H   0  0  0  1  0  0  0  0  0  0  0  0
   -4.3055    0.3803   -0.9631 H   0  0  0  1  0  0  0  0  0  0  0  0
   -3.8811    0.8686    0.6252 H   0  0  0  1  0  0  0  0  0  0  0  0
  1  2  2  0  0  0  0
  1  6  1  0  0  0  0
  1  7  1  0  0  0  0
  2  3  1  0  0  0  0
  2 10  1  0  0  0  0
  3  4  2  0  0  0  0
  3 11  1  0  0  0  0
  4  5  1  0  0  0  0
  4 12  1  0  0  0  0
  5  6  2  0  0  0  0
  5 13  1  0  0  0  0
  6 14  1  0  0  0  0
  7  8  1  0  0  0  0
  7 15  1  0  0  0  0
  7 16  1  0  0  0  0
  8  9  1  0  0  0  0
  8 17  1  0  0  0  0
  8 18  1  0  0  0  0
  9 19  1  0  0  0  0
  9 20  1  0  0  0  0
  9 21  1  0  0  0  0
M  END
> <ConfClashScore>
0 

> <ConfOneFourInteractionScore>
-1 

> <ConfScore>
-0.519025 

> <ConfScorePBest>
0.05527 

> <ConfTolerance>
0.038823 

> <FORMULA>
C8H12N+

> <OPENEYE_INCHI>
InChI=1S/C8H11N/c9-7-6-8-4-2-1-3-5-8/h1-5H,6-7,9H2/p+1

> <OPENEYE_INCHIKEY>
BHHGXPLMPWCGHP-UHFFFAOYSA-O

> <OPENEYE_ISO_SMILES>
c1ccc(cc1)CC[NH3+]

$$$$
PEA
  -OEChem-06042117583D

 21 21  0  0  0  0  0  0  0  0999 V2000
    0.0951   -0.0016    0.3545 C   0  0  0  1  0  0  0  0  0  0  0  0
    0.7684    1.1991    0.1916 C   0  0  0  1  0  0  0  0  0  0  0  0
    2.1101    1.1998   -0.1401 C   0  0  0  1  0  0  0  0  0  0  0  0
    2.7838   -0.0004   -0.3045 C   0  0  0  1  0  0  0  0  0  0  0  0
    2.1127   -1.1977   -0.1421 C   0  0  0  1  0  0  0  0  0  0  0  0
    0.7670   -1.1982    0.1905 C   0  0  0  1  0  0  0  0  0  0  0  0
   -1.3726   -0.0029    0.7112 C   0  0  0  1  0  0  0  0  0  0  0  0
   -2.3208   -0.1974   -0.4487 C   0  0  0  1  0  0  0  0  0  0  0  0
   -3.7890   -0.3007   -0.0851 N   0  3  0  1  0  0  0  0  0  0  0  0
    0.2638    2.0996    0.3189 H   0  0  0  1  0  0  0  0  0  0  0  0
    2.6141    2.1007   -0.2662 H   0  0  0  1  0  0  0  0  0  0  0  0
    3.7944    0.0000   -0.5501 H   0  0  0  1  0  0  0  0  0  0  0  0
    2.6173   -2.0982   -0.2694 H   0  0  0  1  0  0  0  0  0  0  0  0
    0.2629   -2.0991    0.3167 H   0  0  0  1  0  0  0  0  0  0  0  0
   -1.6015    0.9359    1.1708 H   0  0  0  1  0  0  0  0  0  0  0  0
   -1.5414   -0.7940    1.4117 H   0  0  0  1  0  0  0  0  0  0  0  0
   -2.0426   -1.0989   -0.9534 H   0  0  0  1  0  0  0  0  0  0  0  0
   -2.2038    0.6340   -1.1121 H   0  0  0  1  0  0  0  0  0  0  0  0
   -3.9312   -1.1060    0.5735 H   0  0  0  1  0  0  0  0  0  0  0  0
   -4.3548   -0.4569   -0.9557 H   0  0  0  1  0  0  0  0  0  0  0  0
   -4.0979    0.5892    0.3787 H   0  0  0  1  0  0  0  0  0  0  0  0
  1  2  2  0  0  0  0
  1  6  1  0  0  0  0
  1  7  1  0  0  0  0
  2  3  1  0  0  0  0
  2 10  1  0  0  0  0
  3  4  2  0  0  0  0
  3 11  1  0  0  0  0
  4  5  1  0  0  0  0
  4 12  1  0  0  0  0
  5  6  2  0  0  0  0
  5 13  1  0  0  0  0
  6 14  1  0  0  0  0
  7  8  1  0  0  0  0
  7 15  1  0  0  0  0
  7 16  1  0  0  0  0
  8  9  1  0  0  0  0
  8 17  1  0  0  0  0
  8 18  1  0  0  0  0
  9 19  1  0  0  0  0
  9 20  1  0  0  0  0
  9 21  1  0  0  0  0
M  END
> <ConfClashScore>
0 

> <ConfOneFourInteractionScore>
-1 

> <ConfScore>
-0.519025 

> <ConfScorePBest>
0.0539975 

> <ConfTolerance>
0.0538439 

> <FORMULA>
C8H12N+

> <OPENEYE_INCHI>
InChI=1S/C8H11N/c9-7-6-8-4-2-1-3-5-8/h1-5H,6-7,9H2/p+1

> <OPENEYE_INCHIKEY>
BHHGXPLMPWCGHP-UHFFFAOYSA-O

> <OPENEYE_ISO_SMILES>
c1ccc(cc1)CC[NH3+]

$$$$
PEA
  -OEChem-06042117583D

 21 21  0  0  0  0  0  0  0  0999 V2000
    0.0951   -0.0016    0.3545 C   0  0  0  1  0  0  0  0  0  0  0  0
    0.7684    1.1991    0.1916 C   0  0  0  1  0  0  0  0  0  0  0  0
    2.1101    1.1998   -0.1401 C   0  0  0  1  0  0  0  0  0  0  0  0
    2.7838   -0.0004   -0.3045 C   0  0  0  1  0  0  0  0  0  0  0  0
    2.1127   -1.1977   -0.1421 C   0  0  0  1  0  0  0  0  0  0  0  0
    0.7670   -1.1982    0.1905 C   0  0  0  1  0  0  0  0  0  0  0  0
   -1.3726   -0.0029    0.7112 C   0  0  0  1  0  0  0  0  0  0  0  0
   -1.6194   -0.1606    2.1810 C   0  0  0  1  0  0  0  0  0  0  0  0
   -3.0384    0.0250    2.6819 N   0  3  0  1  0  0  0  0  0  0  0  0
    0.2638    2.0996    0.3189 H   0  0  0  1  0  0  0  0  0  0  0  0
    2.6141    2.1007   -0.2662 H   0  0  0  1  0  0  0  0  0  0  0  0
    3.7944    0.0000   -0.5501 H   0  0  0  1  0  0  0  0  0  0  0  0
    2.6173   -2.0982   -0.2694 H   0  0  0  1  0  0  0  0  0  0  0  0
    0.2629   -2.0991    0.3167 H   0  0  0  1  0  0  0  0  0  0  0  0
   -1.8473   -0.8126    0.1974 H   0  0  0  1  0  0  0  0  0  0  0  0
   -1.8017    0.9236    0.3913 H   0  0  0  1  0  0  0  0  0  0  0  0
   -1.0061    0.5557    2.6865 H   0  0  0  1  0  0  0  0  0  0  0  0
   -1.3117   -1.1489    2.4522 H   0  0  0  1  0  0  0  0  0  0  0  0
   -3.6308   -0.7812    2.3632 H   0  0  0  1  0  0  0  0  0  0  0  0
   -3.4304    0.9203    2.2982 H   0  0  0  1  0  0  0  0  0  0  0  0
   -3.0365    0.0644    3.7311 H   0  0  0  1  0  0  0  0  0  0  0  0
  1  2  2  0  0  0  0
  1  6  1  0  0  0  0
  1  7  1  0  0  0  0
  2  3  1  0  0  0  0
  2 10  1  0  0  0  0
  3  4  2  0  0  0  0
  3 11  1  0  0  0  0
  4  5  1  0  0  0  0
  4 12  1  0  0  0  0
  5  6  2  0  0  0  0
  5 13  1  0  0  0  0
  6 14  1  0  0  0  0
  7  8  1  0  0  0  0
  7 15  1  0  0  0  0
  7 16  1  0  0  0  0
  8  9  1  0  0  0  0
  8 17  1  0  0  0  0
  8 18  1  0  0  0  0
  9 19  1  0  0  0  0
  9 20  1  0  0  0  0
  9 21  1  0  0  0  0
M  END
> <ConfClashScore>
0 

> <ConfOneFourInteractionScore>
-1 

> <ConfScore>
-0.519025 

> <ConfScorePBest>
0.052725 

> <ConfTolerance>
0.0557164 

> <FORMULA>
C8H12N+

> <OPENEYE_INCHI>
InChI=1S/C8H11N/c9-7-6-8-4-2-1-3-5-8/h1-5H,6-7,9H2/p+1

> <OPENEYE_INCHIKEY>
BHHGXPLMPWCGHP-UHFFFAOYSA-O

> <OPENEYE_ISO_SMILES>
c1ccc(cc1)CC[NH3+]

$$$$
PEA
  -OEChem-06042117583D

 21 21  0  0  0  0  0  0  0  0999 V2000
    0.0951   -0.0016    0.3545 C   0  0  0  1  0  0  0  0  0  0  0  0
    0.7684    1.1991    0.1916 C   0  0  0  1  0  0  0  0  0  0  0  0
    2.1101    1.1998   -0.1401 C   0  0  0  1  0  0  0  0  0  0  0  0
    2.7838   -0.0004   -0.3045 C   0  0  0  1  0  0  0  0  0  0  0  0
    2.1127   -1.1977   -0.1421 C   0  0  0  1  0  0  0  0  0  0  0  0
    0.7670   -1.1982    0.1905 C   0  0  0  1  0  0  0  0  0  0  0  0
   -1.3726   -0.0029    0.7112 C   0  0  0  1  0  0  0  0  0  0  0  0
   -2.3655   -0.3080   -0.3985 C   0  0  0  1  0  0  0  0  0  0  0  0
   -3.7595   -0.1859    0.1240 N   0  3  0  1  0  0  0  0  0  0  0  0
    0.2638    2.0996    0.3189 H   0  0  0  1  0  0  0  0  0  0  0  0
    2.6141    2.1007   -0.2662 H   0  0  0  1  0  0  0  0  0  0  0  0
    3.7944    0.0000   -0.5501 H   0  0  0  1  0  0  0  0  0  0  0  0
    2.6173   -2.0982   -0.2694 H   0  0  0  1  0  0  0  0  0  0  0  0
    0.2629   -2.0991    0.3167 H   0  0  0  1  0  0  0  0  0  0  0  0
   -1.6097    0.9673    1.0951 H   0  0  0  1  0  0  0  0  0  0  0  0
   -1.5150   -0.7351    1.4784 H   0  0  0  1  0  0  0  0  0  0  0  0
   -2.2054   -1.3042   -0.7546 H   0  0  0  1  0  0  0  0  0  0  0  0
   -2.2250    0.3852   -1.2015 H   0  0  0  1  0  0  0  0  0  0  0  0
   -3.8507    0.7032    0.6751 H   0  0  0  1  0  0  0  0  0  0  0  0
   -3.9735   -1.0055    0.7445 H   0  0  0  1  0  0  0  0  0  0  0  0
   -4.4344   -0.1696   -0.6803 H   0  0  0  1  0  0  0  0  0  0  0  0
  1  2  2  0  0  0  0
  1  6  1  0  0  0  0
  1  7  1  0  0  0  0
  2  3  1  0  0  0  0
  2 10  1  0  0  0  0
  3  4  2  0  0  0  0
  3 11  1  0  0  0  0
  4  5  1  0  0  0  0
  4 12  1  0  0  0  0
  5  6  2  0  0  0  0
  5 13  1  0  0  0  0
  6 14  1  0  0  0  0
  7  8  1  0  0  0  0
  7 15  1  0  0  0  0
  7 16  1  0  0  0  0
  8  9  1  0  0  0  0
  8 17  1  0  0  0  0
  8 18  1  0  0  0  0
  9 19  1  0  0  0  0
  9 20  1  0  0  0  0
  9 21  1  0  0  0  0
M  END
> <ConfClashScore>
0 

> <ConfOneFourInteractionScore>
-1 

> <ConfScore>
-0.519025 

> <ConfScorePBest>
0.0514525 

> <ConfTolerance>
0.0815441 

> <FORMULA>
C8H12N+

> <OPENEYE_INCHI>
InChI=1S/C8H11N/c9-7-6-8-4-2-1-3-5-8/h1-5H,6-7,9H2/p+1

> <OPENEYE_INCHIKEY>
BHHGXPLMPWCGHP-UHFFFAOYSA-O

> <OPENEYE_ISO_SMILES>
c1ccc(cc1)CC[NH3+]

$$$$
PEA
  -OEChem-06042117583D

 21 21  0  0  0  0  0  0  0  0999 V2000
    0.0951   -0.0016    0.3545 C   0  0  0  1  0  0  0  0  0  0  0  0
    0.7684    1.1991    0.1916 C   0  0  0  1  0  0  0  0  0  0  0  0
    2.1101    1.1998   -0.1401 C   0  0  0  1  0  0  0  0  0  0  0  0
    2.7838   -0.0004   -0.3045 C   0  0  0  1  0  0  0  0  0  0  0  0
    2.1127   -1.1977   -0.1421 C   0  0  0  1  0  0  0  0  0  0  0  0
    0.7670   -1.1982    0.1905 C   0  0  0  1  0  0  0  0  0  0  0  0
   -1.3726   -0.0029    0.7112 C   0  0  0  1  0  0  0  0  0  0  0  0
   -2.3300   -0.0153   -0.4693 C   0  0  0  1  0  0  0  0  0  0  0  0
   -3.7946    0.1772   -0.1277 N   0  3  0  1  0  0  0  0  0  0  0  0
    0.2638    2.0996    0.3189 H   0  0  0  1  0  0  0  0  0  0  0  0
    2.6141    2.1007   -0.2662 H   0  0  0  1  0  0  0  0  0  0  0  0
    3.7944    0.0000   -0.5501 H   0  0  0  1  0  0  0  0  0  0  0  0
    2.6173   -2.0982   -0.2694 H   0  0  0  1  0  0  0  0  0  0  0  0
    0.2629   -2.0991    0.3167 H   0  0  0  1  0  0  0  0  0  0  0  0
   -1.5726    0.8751    1.2892 H   0  0  0  1  0  0  0  0  0  0  0  0
   -1.5676   -0.8725    1.3035 H   0  0  0  1  0  0  0  0  0  0  0  0
   -2.2290   -0.9582   -0.9649 H   0  0  0  1  0  0  0  0  0  0  0  0
   -2.0414    0.7709   -1.1352 H   0  0  0  1  0  0  0  0  0  0  0  0
   -3.9042    1.0272    0.4789 H   0  0  0  1  0  0  0  0  0  0  0  0
   -4.1477   -0.6674    0.3866 H   0  0  0  1  0  0  0  0  0  0  0  0
   -4.3461    0.3051   -1.0120 H   0  0  0  1  0  0  0  0  0  0  0  0
  1  2  2  0  0  0  0
  1  6  1  0  0  0  0
  1  7  1  0  0  0  0
  2  3  1  0  0  0  0
  2 10  1  0  0  0  0
  3  4  2  0  0  0  0
  3 11  1  0  0  0  0
  4  5  1  0  0  0  0
  4 12  1  0  0  0  0
  5  6  2  0  0  0  0
  5 13  1  0  0  0  0
  6 14  1  0  0  0  0
  7  8  1  0  0  0  0
  7 15  1  0  0  0  0
  7 16  1  0  0  0  0
  8  9  1  0  0  0  0
  8 17  1  0  0  0  0
  8 18  1  0  0  0  0
  9 19  1  0  0  0  0
  9 20  1  0  0  0  0
  9 21  1  0  0  0  0
M  END
> <ConfClashScore>
0 

> <ConfOneFourInteractionScore>
-1 

> <ConfScore>
-0.519025 

> <ConfScorePBest>
0.05018 

> <ConfTolerance>
0.0571361 

> <FORMULA>
C8H12N+

> <OPENEYE_INCHI>
InChI=1S/C8H11N/c9-7-6-8-4-2-1-3-5-8/h1-5H,6-7,9H2/p+1

> <OPENEYE_INCHIKEY>
BHHGXPLMPWCGHP-UHFFFAOYSA-O

> <OPENEYE_ISO_SMILES>
c1ccc(cc1)CC[NH3+]

$$$$
PEA
  -OEChem-06042117583D

 21 21  0  0  0  0  0  0  0  0999 V2000
    0.0951   -0.0016    0.3545 C   0  0  0  1  0  0  0  0  0  0  0  0
    0.7684    1.1991    0.1916 C   0  0  0  1  0  0  0  0  0  0  0  0
    2.1101    1.1998   -0.1401 C   0  0  0  1  0  0  0  0  0  0  0  0
    2.7838   -0.0004   -0.3045 C   0  0  0  1  0  0  0  0  0  0  0  0
    2.1127   -1.1977   -0.1421 C   0  0  0  1  0  0  0  0  0  0  0  0
    0.7670   -1.1982    0.1905 C   0  0  0  1  0  0  0  0  0  0  0  0
   -1.3726   -0.0029    0.7112 C   0  0  0  1  0  0  0  0  0  0  0  0
   -1.6867   -0.2552    2.1769 C   0  0  0  1  0  0  0  0  0  0  0  0
   -3.1371   -0.5350    2.3990 N   0  3  0  1  0  0  0  0  0  0  0  0
    0.2638    2.0996    0.3189 H   0  0  0  1  0  0  0  0  0  0  0  0
    2.6141    2.1007   -0.2662 H   0  0  0  1  0  0  0  0  0  0  0  0
    3.7944    0.0000   -0.5501 H   0  0  0  1  0  0  0  0  0  0  0  0
    2.6173   -2.0982   -0.2694 H   0  0  0  1  0  0  0  0  0  0  0  0
    0.2629   -2.0991    0.3167 H   0  0  0  1  0  0  0  0  0  0  0  0
   -1.8517   -0.7666    0.1348 H   0  0  0  1  0  0  0  0  0  0  0  0
   -1.7775    0.9515    0.4464 H   0  0  0  1  0  0  0  0  0  0  0  0
   -1.4114    0.6102    2.7428 H   0  0  0  1  0  0  0  0  0  0  0  0
   -1.1175   -1.0970    2.5120 H   0  0  0  1  0  0  0  0  0  0  0  0
   -3.4270   -1.3622    1.8210 H   0  0  0  1  0  0  0  0  0  0  0  0
   -3.7023    0.3039    2.1172 H   0  0  0  1  0  0  0  0  0  0  0  0
   -3.3016   -0.7432    3.4149 H   0  0  0  1  0  0  0  0  0  0  0  0
  1  2  2  0  0  0  0
  1  6  1  0  0  0  0
  1  7  1  0  0  0  0
  2  3  1  0  0  0  0
  2 10  1  0  0  0  0
  3  4  2  0  0  0  0
  3 11  1  0  0  0  0
  4  5  1  0  0  0  0
  4 12  1  0  0  0  0
  5  6  2  0  0  0  0
  5 13  1  0  0  0  0
  6 14  1  0  0  0  0
  7  8  1  0  0  0  0
  7 15  1  0  0  0  0
  7 16  1  0  0  0  0
  8  9  1  0  0  0  0
  8 17  1  0  0  0  0
  8 18  1  0  0  0  0
  9 19  1  0  0  0  0
  9 20  1  0  0  0  0
  9 21  1  0  0  0  0
M  END
> <ConfClashScore>
0 

> <ConfOneFourInteractionScore>
-1 

> <ConfScore>
-0.519025 

> <ConfScorePBest>
0.0489075 

> <ConfTolerance>
0.0712883 

> <FORMULA>
C8H12N+

> <OPENEYE_INCHI>
InChI=1S/C8H11N/c9-7-6-8-4-2-1-3-5-8/h1-5H,6-7,9H2/p+1

> <OPENEYE_INCHIKEY>
BHHGXPLMPWCGHP-UHFFFAOYSA-O

> <OPENEYE_ISO_SMILES>
c1ccc(cc1)CC[NH3+]

$$$$
PEA
  -OEChem-06042117583D

 21 21  0  0  0  0  0  0  0  0999 V2000
    0.0951   -0.0016    0.3545 C   0  0  0  1  0  0  0  0  0  0  0  0
    0.7684    1.1991    0.1916 C   0  0  0  1  0  0  0  0  0  0  0  0
    2.1101    1.1998   -0.1401 C   0  0  0  1  0  0  0  0  0  0  0  0
    2.7838   -0.0004   -0.3045 C   0  0  0  1  0  0  0  0  0  0  0  0
    2.1127   -1.1977   -0.1421 C   0  0  0  1  0  0  0  0  0  0  0  0
    0.7670   -1.1982    0.1905 C   0  0  0  1  0  0  0  0  0  0  0  0
   -1.3726   -0.0029    0.7112 C   0  0  0  1  0  0  0  0  0  0  0  0
   -2.2533   -0.5640   -0.3933 C   0  0  0  1  0  0  0  0  0  0  0  0
   -3.6720   -0.7217    0.0469 N   0  3  0  1  0  0  0  0  0  0  0  0
    0.2638    2.0996    0.3189 H   0  0  0  1  0  0  0  0  0  0  0  0
    2.6141    2.1007   -0.2662 H   0  0  0  1  0  0  0  0  0  0  0  0
    3.7944    0.0000   -0.5501 H   0  0  0  1  0  0  0  0  0  0  0  0
    2.6173   -2.0982   -0.2694 H   0  0  0  1  0  0  0  0  0  0  0  0
    0.2629   -2.0991    0.3167 H   0  0  0  1  0  0  0  0  0  0  0  0
   -1.6757    1.0038    0.9102 H   0  0  0  1  0  0  0  0  0  0  0  0
   -1.5089   -0.5973    1.5905 H   0  0  0  1  0  0  0  0  0  0  0  0
   -1.8739   -1.5210   -0.6848 H   0  0  0  1  0  0  0  0  0  0  0  0
   -2.2236    0.1020   -1.2303 H   0  0  0  1  0  0  0  0  0  0  0  0
   -4.1973   -1.2921   -0.6610 H   0  0  0  1  0  0  0  0  0  0  0  0
   -4.1184    0.2246    0.1344 H   0  0  0  1  0  0  0  0  0  0  0  0
   -3.6975   -1.2086    0.9769 H   0  0  0  1  0  0  0  0  0  0  0  0
  1  2  2  0  0  0  0
  1  6  1  0  0  0  0
  1  7  1  0  0  0  0
  2  3  1  0  0  0  0
  2 10  1  0  0  0  0
  3  4  2  0  0  0  0
  3 11  1  0  0  0  0
  4  5  1  0  0  0  0
  4 12  1  0  0  0  0
  5  6  2  0  0  0  0
  5 13  1  0  0  0  0
  6 14  1  0  0  0  0
  7  8  1  0  0  0  0
  7 15  1  0  0  0  0
  7 16  1  0  0  0  0
  8  9  1  0  0  0  0
  8 17  1  0  0  0  0
  8 18  1  0  0  0  0
  9 19  1  0  0  0  0
  9 20  1  0  0  0  0
  9 21  1  0  0  0  0
M  END
> <ConfClashScore>
0 

> <ConfOneFourInteractionScore>
-1 

> <ConfScore>
-0.326616 

> <ConfScorePBest>
0.047635 

> <ConfTolerance>
0.0477352 

> <FORMULA>
C8H12N+

> <OPENEYE_INCHI>
InChI=1S/C8H11N/c9-7-6-8-4-2-1-3-5-8/h1-5H,6-7,9H2/p+1

> <OPENEYE_INCHIKEY>
BHHGXPLMPWCGHP-UHFFFAOYSA-O

> <OPENEYE_ISO_SMILES>
c1ccc(cc1)CC[NH3+]

$$$$
PEA
  -OEChem-06042117583D

 21 21  0  0  0  0  0  0  0  0999 V2000
    0.0951   -0.0016    0.3545 C   0  0  0  1  0  0  0  0  0  0  0  0
    0.7684    1.1991    0.1916 C   0  0  0  1  0  0  0  0  0  0  0  0
    2.1101    1.1998   -0.1401 C   0  0  0  1  0  0  0  0  0  0  0  0
    2.7838   -0.0004   -0.3045 C   0  0  0  1  0  0  0  0  0  0  0  0
    2.1127   -1.1977   -0.1421 C   0  0  0  1  0  0  0  0  0  0  0  0
    0.7670   -1.1982    0.1905 C   0  0  0  1  0  0  0  0  0  0  0  0
   -1.3726   -0.0029    0.7112 C   0  0  0  1  0  0  0  0  0  0  0  0
   -2.2337   -0.7237   -0.3132 C   0  0  0  1  0  0  0  0  0  0  0  0
   -3.7259   -0.7038   -0.0457 N   0  3  0  1  0  0  0  0  0  0  0  0
    0.2638    2.0996    0.3189 H   0  0  0  1  0  0  0  0  0  0  0  0
    2.6141    2.1007   -0.2662 H   0  0  0  1  0  0  0  0  0  0  0  0
    3.7944    0.0000   -0.5501 H   0  0  0  1  0  0  0  0  0  0  0  0
    2.6173   -2.0982   -0.2694 H   0  0  0  1  0  0  0  0  0  0  0  0
    0.2629   -2.0991    0.3167 H   0  0  0  1  0  0  0  0  0  0  0  0
   -1.7064    1.0111    0.7837 H   0  0  0  1  0  0  0  0  0  0  0  0
   -1.4926   -0.4869    1.6579 H   0  0  0  1  0  0  0  0  0  0  0  0
   -1.9191   -1.7458   -0.3466 H   0  0  0  1  0  0  0  0  0  0  0  0
   -2.0641   -0.2664   -1.2656 H   0  0  0  1  0  0  0  0  0  0  0  0
   -4.2209   -1.2701   -0.7783 H   0  0  0  1  0  0  0  0  0  0  0  0
   -4.0734    0.2866   -0.0753 H   0  0  0  1  0  0  0  0  0  0  0  0
   -3.9169   -1.1141    0.9018 H   0  0  0  1  0  0  0  0  0  0  0  0
  1  2  2  0  0  0  0
  1  6  1  0  0  0  0
  1  7  1  0  0  0  0
  2  3  1  0  0  0  0
  2 10  1  0  0  0  0
  3  4  2  0  0  0  0
  3 11  1  0  0  0  0
  4  5  1  0  0  0  0
  4 12  1  0  0  0  0
  5  6  2  0  0  0  0
  5 13  1  0  0  0  0
  6 14  1  0  0  0  0
  7  8  1  0  0  0  0
  7 15  1  0  0  0  0
  7 16  1  0  0  0  0
  8  9  1  0  0  0  0
  8 17  1  0  0  0  0
  8 18  1  0  0  0  0
  9 19  1  0  0  0  0
  9 20  1  0  0  0  0
  9 21  1  0  0  0  0
M  END
> <ConfClashScore>
0 

> <ConfOneFourInteractionScore>
-1 

> <ConfScore>
-0.326616 

> <ConfScorePBest>
0.0463625 

> <ConfTolerance>
0.0548577 

> <FORMULA>
C8H12N+

> <OPENEYE_INCHI>
InChI=1S/C8H11N/c9-7-6-8-4-2-1-3-5-8/h1-5H,6-7,9H2/p+1

> <OPENEYE_INCHIKEY>
BHHGXPLMPWCGHP-UHFFFAOYSA-O

> <OPENEYE_ISO_SMILES>
c1ccc(cc1)CC[NH3+]

$$$$
PEA
  -OEChem-06042117583D

 21 21  0  0  0  0  0  0  0  0999 V2000
    0.0950   -0.0109    0.3545 C   0  0  0  1  0  0  0  0  0  0  0  0
    0.7644    1.1921    0.1925 C   0  0  0  1  0  0  0  0  0  0  0  0
    2.1061    1.1974   -0.1391 C   0  0  0  1  0  0  0  0  0  0  0  0
    2.7837   -0.0005   -0.3045 C   0  0  0  1  0  0  0  0  0  0  0  0
    2.1165   -1.2001   -0.1430 C   0  0  0  1  0  0  0  0  0  0  0  0
    0.7708   -1.2052    0.1896 C   0  0  0  1  0  0  0  0  0  0  0  0
   -1.3718    0.0407    0.7111 C   0  0  0  1  0  0  0  0  0  0  0  0
   -1.5925    0.8691    1.9662 C   0  0  0  1  0  0  0  0  0  0  0  0
   -3.0397    1.0831    2.3645 N   0  3  0  1  0  0  0  0  0  0  0  0
    0.2570    2.0908    0.3206 H   0  0  0  1  0  0  0  0  0  0  0  0
    2.6073    2.1000   -0.2645 H   0  0  0  1  0  0  0  0  0  0  0  0
    3.7943    0.0034   -0.5501 H   0  0  0  1  0  0  0  0  0  0  0  0
    2.6240   -2.0988   -0.2711 H   0  0  0  1  0  0  0  0  0  0  0  0
    0.2696   -2.1078    0.3150 H   0  0  0  1  0  0  0  0  0  0  0  0
   -1.7269   -0.9543    0.8805 H   0  0  0  1  0  0  0  0  0  0  0  0
   -1.9146    0.4805   -0.0994 H   0  0  0  1  0  0  0  0  0  0  0  0
   -1.1492    1.8300    1.8084 H   0  0  0  1  0  0  0  0  0  0  0  0
   -1.0977    0.3763    2.7769 H   0  0  0  1  0  0  0  0  0  0  0  0
   -3.5434    1.5906    1.5956 H   0  0  0  1  0  0  0  0  0  0  0  0
   -3.0794    1.6539    3.2449 H   0  0  0  1  0  0  0  0  0  0  0  0
   -3.4984    0.1530    2.5288 H   0  0  0  1  0  0  0  0  0  0  0  0
  1  2  2  0  0  0  0
  1  6  1  0  0  0  0
  1  7  1  0  0  0  0
  2  3  1  0  0  0  0
  2 10  1  0  0  0  0
  3  4  2  0  0  0  0
  3 11  1  0  0  0  0
  4  5  1  0  0  0  0
  4 12  1  0  0  0  0
  5  6  2  0  0  0  0
  5 13  1  0  0  0  0
  6 14  1  0  0  0  0
  7  8  1  0  0  0  0
  7 15  1  0  0  0  0
  7 16  1  0  0  0  0
  8  9  1  0  0  0  0
  8 17  1  0  0  0  0
  8 18  1  0  0  0  0
  9 19  1  0  0  0  0
  9 20  1  0  0  0  0
  9 21  1  0  0  0  0
M  END
> <ConfClashScore>
0 

> <ConfOneFourInteractionScore>
-1 

> <ConfScore>
-0.326616 

> <ConfScorePBest>
0.04509 

> <ConfTolerance>
0.155807 

> <FORMULA>
C8H12N+

> <OPENEYE_INCHI>
InChI=1S/C8H11N/c9-7-6-8-4-2-1-3-5-8/h1-5H,6-7,9H2/p+1

> <OPENEYE_INCHIKEY>
BHHGXPLMPWCGHP-UHFFFAOYSA-O

> <OPENEYE_ISO_SMILES>
c1ccc(cc1)CC[NH3+]

$$$$
PEA
  -OEChem-06042117583D

 21 21  0  0  0  0  0  0  0  0999 V2000
    0.0951   -0.0016    0.3545 C   0  0  0  1  0  0  0  0  0  0  0  0
    0.7684    1.1991    0.1916 C   0  0  0  1  0  0  0  0  0  0  0  0
    2.1101    1.1998   -0.1401 C   0  0  0  1  0  0  0  0  0  0  0  0
    2.7838   -0.0004   -0.3045 C   0  0  0  1  0  0  0  0  0  0  0  0
    2.1127   -1.1977   -0.1421 C   0  0  0  1  0  0  0  0  0  0  0  0
    0.7670   -1.1982    0.1905 C   0  0  0  1  0  0  0  0  0  0  0  0
   -1.3726   -0.0029    0.7112 C   0  0  0  1  0  0  0  0  0  0  0  0
   -1.6446   -0.5287    2.1112 C   0  0  0  1  0  0  0  0  0  0  0  0
   -3.1141   -0.5930    2.3479 N   0  3  0  1  0  0  0  0  0  0  0  0
    0.2638    2.0996    0.3189 H   0  0  0  1  0  0  0  0  0  0  0  0
    2.6141    2.1007   -0.2662 H   0  0  0  1  0  0  0  0  0  0  0  0
    3.7944    0.0000   -0.5501 H   0  0  0  1  0  0  0  0  0  0  0  0
    2.6173   -2.0982   -0.2694 H   0  0  0  1  0  0  0  0  0  0  0  0
    0.2629   -2.0991    0.3167 H   0  0  0  1  0  0  0  0  0  0  0  0
   -1.8933   -0.6196    0.0087 H   0  0  0  1  0  0  0  0  0  0  0  0
   -1.7397    1.0001    0.6468 H   0  0  0  1  0  0  0  0  0  0  0  0
   -1.1973    0.1259    2.8298 H   0  0  0  1  0  0  0  0  0  0  0  0
   -1.2255   -1.5081    2.2107 H   0  0  0  1  0  0  0  0  0  0  0  0
   -3.3000   -1.0458    3.2768 H   0  0  0  1  0  0  0  0  0  0  0  0
   -3.5666   -1.1575    1.5869 H   0  0  0  1  0  0  0  0  0  0  0  0
   -3.5115    0.3789    2.3468 H   0  0  0  1  0  0  0  0  0  0  0  0
  1  2  2  0  0  0  0
  1  6  1  0  0  0  0
  1  7  1  0  0  0  0
  2  3  1  0  0  0  0
  2 10  1  0  0  0  0
  3  4  2  0  0  0  0
  3 11  1  0  0  0  0
  4  5  1  0  0  0  0
  4 12  1  0  0  0  0
  5  6  2  0  0  0  0
  5 13  1  0  0  0  0
  6 14  1  0  0  0  0
  7  8  1  0  0  0  0
  7 15  1  0  0  0  0
  7 16  1  0  0  0  0
  8  9  1  0  0  0  0
  8 17  1  0  0  0  0
  8 18  1  0  0  0  0
  9 19  1  0  0  0  0
  9 20  1  0  0  0  0
  9 21  1  0  0  0  0
M  END
> <ConfClashScore>
0 

> <ConfOneFourInteractionScore>
-1 

> <ConfScore>
-0.310642 

> <ConfScorePBest>
0.0438175 

> <ConfTolerance>
0.0518631 

> <FORMULA>
C8H12N+

> <OPENEYE_INCHI>
InChI=1S/C8H11N/c9-7-6-8-4-2-1-3-5-8/h1-5H,6-7,9H2/p+1

> <OPENEYE_INCHIKEY>
BHHGXPLMPWCGHP-UHFFFAOYSA-O

> <OPENEYE_ISO_SMILES>
c1ccc(cc1)CC[NH3+]

$$$$
PEA
  -OEChem-06042117583D

 21 21  0  0  0  0  0  0  0  0999 V2000
    0.0951   -0.0016    0.3545 C   0  0  0  1  0  0  0  0  0  0  0  0
    0.7684    1.1991    0.1916 C   0  0  0  1  0  0  0  0  0  0  0  0
    2.1101    1.1998   -0.1401 C   0  0  0  1  0  0  0  0  0  0  0  0
    2.7838   -0.0004   -0.3045 C   0  0  0  1  0  0  0  0  0  0  0  0
    2.1127   -1.1977   -0.1421 C   0  0  0  1  0  0  0  0  0  0  0  0
    0.7670   -1.1982    0.1905 C   0  0  0  1  0  0  0  0  0  0  0  0
   -1.3726   -0.0029    0.7112 C   0  0  0  1  0  0  0  0  0  0  0  0
   -2.1747    0.7650   -0.3156 C   0  0  0  1  0  0  0  0  0  0  0  0
   -3.6814    0.6602   -0.1827 N   0  3  0  1  0  0  0  0  0  0  0  0
    0.2638    2.0996    0.3189 H   0  0  0  1  0  0  0  0  0  0  0  0
    2.6141    2.1007   -0.2662 H   0  0  0  1  0  0  0  0  0  0  0  0
    3.7944    0.0000   -0.5501 H   0  0  0  1  0  0  0  0  0  0  0  0
    2.6173   -2.0982   -0.2694 H   0  0  0  1  0  0  0  0  0  0  0  0
    0.2629   -2.0991    0.3167 H   0  0  0  1  0  0  0  0  0  0  0  0
   -1.5010    0.4542    1.6701 H   0  0  0  1  0  0  0  0  0  0  0  0
   -1.7240   -1.0129    0.7471 H   0  0  0  1  0  0  0  0  0  0  0  0
   -1.9038    0.4004   -1.2844 H   0  0  0  1  0  0  0  0  0  0  0  0
   -1.9085    1.7982   -0.2355 H   0  0  0  1  0  0  0  0  0  0  0  0
   -4.1396    1.3243   -0.8546 H   0  0  0  1  0  0  0  0  0  0  0  0
   -3.9638    0.9051    0.7985 H   0  0  0  1  0  0  0  0  0  0  0  0
   -3.9842   -0.3215   -0.3998 H   0  0  0  1  0  0  0  0  0  0  0  0
  1  2  2  0  0  0  0
  1  6  1  0  0  0  0
  1  7  1  0  0  0  0
  2  3  1  0  0  0  0
  2 10  1  0  0  0  0
  3  4  2  0  0  0  0
  3 11  1  0  0  0  0
  4  5  1  0  0  0  0
  4 12  1  0  0  0  0
  5  6  2  0  0  0  0
  5 13  1  0  0  0  0
  6 14  1  0  0  0  0
  7  8  1  0  0  0  0
  7 15  1  0  0  0  0
  7 16  1  0  0  0  0
  8  9  1  0  0  0  0
  8 17  1  0  0  0  0
  8 18  1  0  0  0  0
  9 19  1  0  0  0  0
  9 20  1  0  0  0  0
  9 21  1  0  0  0  0
M  END
> <ConfClashScore>
0 

> <ConfOneFourInteractionScore>
-1 

> <ConfScore>
-0.310642 

> <ConfScorePBest>
0.042545 

> <ConfTolerance>
0.0963542 

> <FORMULA>
C8H12N+

> <OPENEYE_INCHI>
InChI=1S/C8H11N/c9-7-6-8-4-2-1-3-5-8/h1-5H,6-7,9H2/p+1

> <OPENEYE_INCHIKEY>
BHHGXPLMPWCGHP-UHFFFAOYSA-O

> <OPENEYE_ISO_SMILES>
c1ccc(cc1)CC[NH3+]

$$$$
PEA
  -OEChem-06042117583D

 21 21  0  0  0  0  0  0  0  0999 V2000
    0.0951   -0.0016    0.3545 C   0  0  0  1  0  0  0  0  0  0  0  0
    0.7684    1.1991    0.1916 C   0  0  0  1  0  0  0  0  0  0  0  0
    2.1101    1.1998   -0.1401 C   0  0  0  1  0  0  0  0  0  0  0  0
    2.7838   -0.0004   -0.3045 C   0  0  0  1  0  0  0  0  0  0  0  0
    2.1127   -1.1977   -0.1421 C   0  0  0  1  0  0  0  0  0  0  0  0
    0.7670   -1.1982    0.1905 C   0  0  0  1  0  0  0  0  0  0  0  0
   -1.3726   -0.0029    0.7112 C   0  0  0  1  0  0  0  0  0  0  0  0
   -2.2301    0.1512   -0.5343 C   0  0  0  1  0  0  0  0  0  0  0  0
   -3.7192    0.3000   -0.2909 N   0  3  0  1  0  0  0  0  0  0  0  0
    0.2638    2.0996    0.3189 H   0  0  0  1  0  0  0  0  0  0  0  0
    2.6141    2.1007   -0.2662 H   0  0  0  1  0  0  0  0  0  0  0  0
    3.7944    0.0000   -0.5501 H   0  0  0  1  0  0  0  0  0  0  0  0
    2.6173   -2.0982   -0.2694 H   0  0  0  1  0  0  0  0  0  0  0  0
    0.2629   -2.0991    0.3167 H   0  0  0  1  0  0  0  0  0  0  0  0
   -1.5725    0.8101    1.3775 H   0  0  0  1  0  0  0  0  0  0  0  0
   -1.6159   -0.9271    1.1925 H   0  0  0  1  0  0  0  0  0  0  0  0
   -2.0815   -0.7146   -1.1452 H   0  0  0  1  0  0  0  0  0  0  0  0
   -1.8941    1.0208   -1.0595 H   0  0  0  1  0  0  0  0  0  0  0  0
   -4.2462   -0.0005   -1.1479 H   0  0  0  1  0  0  0  0  0  0  0  0
   -3.9402    1.3042   -0.0785 H   0  0  0  1  0  0  0  0  0  0  0  0
   -4.0023   -0.3008    0.5224 H   0  0  0  1  0  0  0  0  0  0  0  0
  1  2  2  0  0  0  0
  1  6  1  0  0  0  0
  1  7  1  0  0  0  0
  2  3  1  0  0  0  0
  2 10  1  0  0  0  0
  3  4  2  0  0  0  0
  3 11  1  0  0  0  0
  4  5  1  0  0  0  0
  4 12  1  0  0  0  0
  5  6  2  0  0  0  0
  5 13  1  0  0  0  0
  6 14  1  0  0  0  0
  7  8  1  0  0  0  0
  7 15  1  0  0  0  0
  7 16  1  0  0  0  0
  8  9  1  0  0  0  0
  8 17  1  0  0  0  0
  8 18  1  0  0  0  0
  9 19  1  0  0  0  0
  9 20  1  0  0  0  0
  9 21  1  0  0  0  0
M  END
> <ConfClashScore>
0 

> <ConfOneFourInteractionScore>
-1 

> <ConfScore>
-0.253824 

> <ConfScorePBest>
0.0412725 

> <ConfTolerance>
0.110861 

> <FORMULA>
C8H12N+

> <OPENEYE_INCHI>
InChI=1S/C8H11N/c9-7-6-8-4-2-1-3-5-8/h1-5H,6-7,9H2/p+1

> <OPENEYE_INCHIKEY>
BHHGXPLMPWCGHP-UHFFFAOYSA-O

> <OPENEYE_ISO_SMILES>
c1ccc(cc1)CC[NH3+]

$$$$
PEA
  -OEChem-06042117583D

 21 21  0  0  0  0  0  0  0  0999 V2000
    0.0950    0.0084    0.3545 C   0  0  0  1  0  0  0  0  0  0  0  0
    0.7724    1.2066    0.1906 C   0  0  0  1  0  0  0  0  0  0  0  0
    2.1141    1.2024   -0.1410 C   0  0  0  1  0  0  0  0  0  0  0  0
    2.7837   -0.0003   -0.3045 C   0  0  0  1  0  0  0  0  0  0  0  0
    2.1085   -1.1952   -0.1411 C   0  0  0  1  0  0  0  0  0  0  0  0
    0.7628   -1.1907    0.1916 C   0  0  0  1  0  0  0  0  0  0  0  0
   -1.3716   -0.0497    0.7110 C   0  0  0  1  0  0  0  0  0  0  0  0
   -2.2260   -0.1707   -0.5404 C   0  0  0  1  0  0  0  0  0  0  0  0
   -3.7196   -0.2836   -0.3061 N   0  3  0  1  0  0  0  0  0  0  0  0
    0.2710    2.1089    0.3172 H   0  0  0  1  0  0  0  0  0  0  0  0
    2.6213    2.1014   -0.2680 H   0  0  0  1  0  0  0  0  0  0  0  0
    3.7943   -0.0036   -0.5501 H   0  0  0  1  0  0  0  0  0  0  0  0
    2.6099   -2.0975   -0.2676 H   0  0  0  1  0  0  0  0  0  0  0  0
    0.2556   -2.0897    0.3185 H   0  0  0  1  0  0  0  0  0  0  0  0
   -1.6410    0.8437    1.2346 H   0  0  0  1  0  0  0  0  0  0  0  0
   -1.5468   -0.8983    1.3387 H   0  0  0  1  0  0  0  0  0  0  0  0
   -1.9094   -1.0438   -1.0717 H   0  0  0  1  0  0  0  0  0  0  0  0
   -2.0521    0.6965   -1.1426 H   0  0  0  1  0  0  0  0  0  0  0  0
   -4.2329    0.2411   -1.0569 H   0  0  0  1  0  0  0  0  0  0  0  0
   -3.9584    0.1246    0.6314 H   0  0  0  1  0  0  0  0  0  0  0  0
   -4.0021   -1.2946   -0.3304 H   0  0  0  1  0  0  0  0  0  0  0  0
  1  2  2  0  0  0  0
  1  6  1  0  0  0  0
  1  7  1  0  0  0  0
  2  3  1  0  0  0  0
  2 10  1  0  0  0  0
  3  4  2  0  0  0  0
  3 11  1  0  0  0  0
  4  5  1  0  0  0  0
  4 12  1  0  0  0  0
  5  6  2  0  0  0  0
  5 13  1  0  0  0  0
  6 14  1  0  0  0  0
  7  8  1  0  0  0  0
  7 15  1  0  0  0  0
  7 16  1  0  0  0  0
  8  9  1  0  0  0  0
  8 17  1  0  0  0  0
  8 18  1  0  0  0  0
  9 19  1  0  0  0  0
  9 20  1  0  0  0  0
  9 21  1  0  0  0  0
M  END
> <ConfClashScore>
0 

> <ConfOneFourInteractionScore>
-1 

> <ConfScore>
-0.247231 

> <ConfScorePBest>
0.04 

> <ConfTolerance>
0.0789668 

> <FORMULA>
C8H12N+

> <OPENEYE_INCHI>
InChI=1S/C8H11N/c9-7-6-8-4-2-1-3-5-8/h1-5H,6-7,9H2/p+1

> <OPENEYE_INCHIKEY>
BHHGXPLMPWCGHP-UHFFFAOYSA-O

> <OPENEYE_ISO_SMILES>
c1ccc(cc1)CC[NH3+]

$$$$
PEA
  -OEChem-06042117583D

 21 21  0  0  0  0  0  0  0  0999 V2000
    0.0895   -0.0087    0.3323 C   0  0  0  1  0  0  0  0  0  0  0  0
    0.7616    1.1937    0.1775 C   0  0  0  1  0  0  0  0  0  0  0  0
    2.1068    1.1979   -0.1396 C   0  0  0  1  0  0  0  0  0  0  0  0
    2.7852   -0.0005   -0.2974 C   0  0  0  1  0  0  0  0  0  0  0  0
    2.1154   -1.1996   -0.1431 C   0  0  0  1  0  0  0  0  0  0  0  0
    0.7661   -1.2036    0.1749 C   0  0  0  1  0  0  0  0  0  0  0  0
   -1.3560    0.0305    0.7687 C   0  0  0  1  0  0  0  0  0  0  0  0
   -1.5216    0.3091    2.2460 C   0  0  0  1  0  0  0  0  0  0  0  0
   -1.0649    1.6783    2.7101 N   0  3  0  1  0  0  0  0  0  0  0  0
    0.2534    2.0929    0.2999 H   0  0  0  1  0  0  0  0  0  0  0  0
    2.6100    2.1002   -0.2597 H   0  0  0  1  0  0  0  0  0  0  0  0
    3.7984    0.0026   -0.5321 H   0  0  0  1  0  0  0  0  0  0  0  0
    2.6235   -2.0987   -0.2655 H   0  0  0  1  0  0  0  0  0  0  0  0
    0.2629   -2.1058    0.2951 H   0  0  0  1  0  0  0  0  0  0  0  0
   -1.8040   -0.9159    0.5483 H   0  0  0  1  0  0  0  0  0  0  0  0
   -1.8570    0.7996    0.2188 H   0  0  0  1  0  0  0  0  0  0  0  0
   -0.9594   -0.4252    2.7842 H   0  0  0  1  0  0  0  0  0  0  0  0
   -2.5598    0.2100    2.4851 H   0  0  0  1  0  0  0  0  0  0  0  0
   -1.2127    1.7645    3.7461 H   0  0  0  1  0  0  0  0  0  0  0  0
   -1.6206    2.4188    2.2147 H   0  0  0  1  0  0  0  0  0  0  0  0
   -0.0453    1.7998    2.4910 H   0  0  0  1  0  0  0  0  0  0  0  0
  1  2  2  0  0  0  0
  1  6  1  0  0  0  0
  1  7  1  0  0  0  0
  2  3  1  0  0  0  0
  2 10  1  0  0  0  0
  3  4  2  0  0  0  0
  3 11  1  0  0  0  0
  4  5  1  0  0  0  0
  4 12  1  0  0  0  0
  5  6  2  0  0  0  0
  5 13  1  0  0  0  0
  6 14  1  0  0  0  0
  7  8  1  0  0  0  0
  7 15  1  0  0  0  0
  7 16  1  0  0  0  0
  8  9  1  0  0  0  0
  8 17  1  0  0  0  0
  8 18  1  0  0  0  0
  9 19  1  0  0  0  0
  9 20  1  0  0  0  0
  9 21  1  0  0  0  0
M  END
> <ConfClashScore>
0 

> <ConfOneFourInteractionScore>
-1 

> <ConfScore>
-0.187126 

> <ConfScorePBest>
0.0387275 

> <ConfTolerance>
0.108691 

> <FORMULA>
C8H12N+

> <OPENEYE_INCHI>
InChI=1S/C8H11N/c9-7-6-8-4-2-1-3-5-8/h1-5H,6-7,9H2/p+1

> <OPENEYE_INCHIKEY>
BHHGXPLMPWCGHP-UHFFFAOYSA-O

> <OPENEYE_ISO_SMILES>
c1ccc(cc1)CC[NH3+]

$$$$
PEA
  -OEChem-06042117583D

 21 21  0  0  0  0  0  0  0  0999 V2000
    0.0951   -0.0016    0.3545 C   0  0  0  1  0  0  0  0  0  0  0  0
    0.7684    1.1991    0.1916 C   0  0  0  1  0  0  0  0  0  0  0  0
    2.1101    1.1998   -0.1401 C   0  0  0  1  0  0  0  0  0  0  0  0
    2.7838   -0.0004   -0.3045 C   0  0  0  1  0  0  0  0  0  0  0  0
    2.1127   -1.1977   -0.1421 C   0  0  0  1  0  0  0  0  0  0  0  0
    0.7670   -1.1982    0.1905 C   0  0  0  1  0  0  0  0  0  0  0  0
   -1.3726   -0.0029    0.7112 C   0  0  0  1  0  0  0  0  0  0  0  0
   -1.5596   -0.0608    2.2077 C   0  0  0  1  0  0  0  0  0  0  0  0
   -0.8468    1.0345    2.9513 N   0  3  0  1  0  0  0  0  0  0  0  0
    0.2638    2.0996    0.3189 H   0  0  0  1  0  0  0  0  0  0  0  0
    2.6141    2.1007   -0.2662 H   0  0  0  1  0  0  0  0  0  0  0  0
    3.7944    0.0000   -0.5501 H   0  0  0  1  0  0  0  0  0  0  0  0
    2.6173   -2.0982   -0.2694 H   0  0  0  1  0  0  0  0  0  0  0  0
    0.2629   -2.0991    0.3167 H   0  0  0  1  0  0  0  0  0  0  0  0
   -1.8411   -0.8556    0.2659 H   0  0  0  1  0  0  0  0  0  0  0  0
   -1.8258    0.8905    0.3354 H   0  0  0  1  0  0  0  0  0  0  0  0
   -1.1897   -1.0019    2.5576 H   0  0  0  1  0  0  0  0  0  0  0  0
   -2.6057    0.0130    2.4200 H   0  0  0  1  0  0  0  0  0  0  0  0
    0.1902    0.8811    2.8920 H   0  0  0  1  0  0  0  0  0  0  0  0
   -1.1447    1.0250    3.9581 H   0  0  0  1  0  0  0  0  0  0  0  0
   -1.0882    1.9624    2.5232 H   0  0  0  1  0  0  0  0  0  0  0  0
  1  2  2  0  0  0  0
  1  6  1  0  0  0  0
  1  7  1  0  0  0  0
  2  3  1  0  0  0  0
  2 10  1  0  0  0  0
  3  4  2  0  0  0  0
  3 11  1  0  0  0  0
  4  5  1  0  0  0  0
  4 12  1  0  0  0  0
  5  6  2  0  0  0  0
  5 13  1  0  0  0  0
  6 14  1  0  0  0  0
  7  8  1  0  0  0  0
  7 15  1  0  0  0  0
  7 16  1  0  0  0  0
  8  9  1  0  0  0  0
  8 17  1  0  0  0  0
  8 18  1  0  0  0  0
  9 19  1  0  0  0  0
  9 20  1  0  0  0  0
  9 21  1  0  0  0  0
M  END
> <ConfClashScore>
0 

> <ConfOneFourInteractionScore>
-1 

> <ConfScore>
-0.187126 

> <ConfScorePBest>
0.037455 

> <ConfTolerance>
0.132102 

> <FORMULA>
C8H12N+

> <OPENEYE_INCHI>
InChI=1S/C8H11N/c9-7-6-8-4-2-1-3-5-8/h1-5H,6-7,9H2/p+1

> <OPENEYE_INCHIKEY>
BHHGXPLMPWCGHP-UHFFFAOYSA-O

> <OPENEYE_ISO_SMILES>
c1ccc(cc1)CC[NH3+]

$$$$
PEA
  -OEChem-06042117583D

 21 21  0  0  0  0  0  0  0  0999 V2000
    0.0895   -0.0087    0.3323 C   0  0  0  1  0  0  0  0  0  0  0  0
    0.7616    1.1937    0.1775 C   0  0  0  1  0  0  0  0  0  0  0  0
    2.1068    1.1979   -0.1396 C   0  0  0  1  0  0  0  0  0  0  0  0
    2.7852   -0.0005   -0.2974 C   0  0  0  1  0  0  0  0  0  0  0  0
    2.1154   -1.1996   -0.1431 C   0  0  0  1  0  0  0  0  0  0  0  0
    0.7661   -1.2036    0.1749 C   0  0  0  1  0  0  0  0  0  0  0  0
   -1.3560    0.0305    0.7687 C   0  0  0  1  0  0  0  0  0  0  0  0
   -2.3673    0.2446   -0.3456 C   0  0  0  1  0  0  0  0  0  0  0  0
   -2.0959    1.4953   -1.1160 N   0  3  0  1  0  0  0  0  0  0  0  0
    0.2534    2.0929    0.2999 H   0  0  0  1  0  0  0  0  0  0  0  0
    2.6100    2.1002   -0.2597 H   0  0  0  1  0  0  0  0  0  0  0  0
    3.7984    0.0026   -0.5321 H   0  0  0  1  0  0  0  0  0  0  0  0
    2.6235   -2.0987   -0.2655 H   0  0  0  1  0  0  0  0  0  0  0  0
    0.2629   -2.1058    0.2951 H   0  0  0  1  0  0  0  0  0  0  0  0
   -1.4667    0.8285    1.4728 H   0  0  0  1  0  0  0  0  0  0  0  0
   -1.5822   -0.9004    1.2454 H   0  0  0  1  0  0  0  0  0  0  0  0
   -3.3454    0.3089    0.0835 H   0  0  0  1  0  0  0  0  0  0  0  0
   -2.3251   -0.5892   -1.0150 H   0  0  0  1  0  0  0  0  0  0  0  0
   -2.3291    2.3298   -0.5230 H   0  0  0  1  0  0  0  0  0  0  0  0
   -2.6868    1.5067   -1.9838 H   0  0  0  1  0  0  0  0  0  0  0  0
   -1.0808    1.5284   -1.3827 H   0  0  0  1  0  0  0  0  0  0  0  0
  1  2  2  0  0  0  0
  1  6  1  0  0  0  0
  1  7  1  0  0  0  0
  2  3  1  0  0  0  0
  2 10  1  0  0  0  0
  3  4  2  0  0  0  0
  3 11  1  0  0  0  0
  4  5  1  0  0  0  0
  4 12  1  0  0  0  0
  5  6  2  0  0  0  0
  5 13  1  0  0  0  0
  6 14  1  0  0  0  0
  7  8  1  0  0  0  0
  7 15  1  0  0  0  0
  7 16  1  0  0  0  0
  8  9  1  0  0  0  0
  8 17  1  0  0  0  0
  8 18  1  0  0  0  0
  9 19  1  0  0  0  0
  9 20  1  0  0  0  0
  9 21  1  0  0  0  0
M  END
> <ConfClashScore>
0 

> <ConfOneFourInteractionScore>
-1 

> <ConfScore>
-0.180891 

> <ConfScorePBest>
0.0361825 

> <ConfTolerance>
0.114395 

> <FORMULA>
C8H12N+

> <OPENEYE_INCHI>
InChI=1S/C8H11N/c9-7-6-8-4-2-1-3-5-8/h1-5H,6-7,9H2/p+1

> <OPENEYE_INCHIKEY>
BHHGXPLMPWCGHP-UHFFFAOYSA-O

> <OPENEYE_ISO_SMILES>
c1ccc(cc1)CC[NH3+]

$$$$
PEA
  -OEChem-06042117583D

 21 21  0  0  0  0  0  0  0  0999 V2000
    0.0951   -0.0016    0.3545 C   0  0  0  1  0  0  0  0  0  0  0  0
    0.7684    1.1991    0.1916 C   0  0  0  1  0  0  0  0  0  0  0  0
    2.1101    1.1998   -0.1401 C   0  0  0  1  0  0  0  0  0  0  0  0
    2.7838   -0.0004   -0.3045 C   0  0  0  1  0  0  0  0  0  0  0  0
    2.1127   -1.1977   -0.1421 C   0  0  0  1  0  0  0  0  0  0  0  0
    0.7670   -1.1982    0.1905 C   0  0  0  1  0  0  0  0  0  0  0  0
   -1.3726   -0.0029    0.7112 C   0  0  0  1  0  0  0  0  0  0  0  0
   -2.3280   -0.1513   -0.4616 C   0  0  0  1  0  0  0  0  0  0  0  0
   -2.1702    0.8718   -1.5693 N   0  3  0  1  0  0  0  0  0  0  0  0
    0.2638    2.0996    0.3189 H   0  0  0  1  0  0  0  0  0  0  0  0
    2.6141    2.1007   -0.2662 H   0  0  0  1  0  0  0  0  0  0  0  0
    3.7944    0.0000   -0.5501 H   0  0  0  1  0  0  0  0  0  0  0  0
    2.6173   -2.0982   -0.2694 H   0  0  0  1  0  0  0  0  0  0  0  0
    0.2629   -2.0991    0.3167 H   0  0  0  1  0  0  0  0  0  0  0  0
   -1.5938    0.9217    1.2022 H   0  0  0  1  0  0  0  0  0  0  0  0
   -1.5479   -0.8158    1.3846 H   0  0  0  1  0  0  0  0  0  0  0  0
   -3.3264   -0.0762   -0.0842 H   0  0  0  1  0  0  0  0  0  0  0  0
   -2.1789   -1.1219   -0.8866 H   0  0  0  1  0  0  0  0  0  0  0  0
   -2.4762    1.8143   -1.2221 H   0  0  0  1  0  0  0  0  0  0  0  0
   -2.7621    0.5925   -2.3904 H   0  0  0  1  0  0  0  0  0  0  0  0
   -1.1630    0.9172   -1.8626 H   0  0  0  1  0  0  0  0  0  0  0  0
  1  2  2  0  0  0  0
  1  6  1  0  0  0  0
  1  7  1  0  0  0  0
  2  3  1  0  0  0  0
  2 10  1  0  0  0  0
  3  4  2  0  0  0  0
  3 11  1  0  0  0  0
  4  5  1  0  0  0  0
  4 12  1  0  0  0  0
  5  6  2  0  0  0  0
  5 13  1  0  0  0  0
  6 14  1  0  0  0  0
  7  8  1  0  0  0  0
  7 15  1  0  0  0  0
  7 16  1  0  0  0  0
  8  9  1  0  0  0  0
  8 17  1  0  0  0  0
  8 18  1  0  0  0  0
  9 19  1  0  0  0  0
  9 20  1  0  0  0  0
  9 21  1  0  0  0  0
M  END
> <ConfClashScore>
0 

> <ConfOneFourInteractionScore>
-1 

> <ConfScore>
-0.180891 

> <ConfScorePBest>
0.03491 

> <ConfTolerance>
0.103538 

> <FORMULA>
C8H12N+

> <OPENEYE_INCHI>
InChI=1S/C8H11N/c9-7-6-8-4-2-1-3-5-8/h1-5H,6-7,9H2/p+1

> <OPENEYE_INCHIKEY>
BHHGXPLMPWCGHP-UHFFFAOYSA-O

> <OPENEYE_ISO_SMILES>
c1ccc(cc1)CC[NH3+]

$$$$
PEA
  -OEChem-06042117583D

 21 21  0  0  0  0  0  0  0  0999 V2000
    0.0950   -0.0109    0.3545 C   0  0  0  1  0  0  0  0  0  0  0  0
    0.7644    1.1921    0.1925 C   0  0  0  1  0  0  0  0  0  0  0  0
    2.1061    1.1974   -0.1391 C   0  0  0  1  0  0  0  0  0  0  0  0
    2.7837   -0.0005   -0.3045 C   0  0  0  1  0  0  0  0  0  0  0  0
    2.1165   -1.2001   -0.1430 C   0  0  0  1  0  0  0  0  0  0  0  0
    0.7708   -1.2052    0.1896 C   0  0  0  1  0  0  0  0  0  0  0  0
   -1.3718    0.0407    0.7111 C   0  0  0  1  0  0  0  0  0  0  0  0
   -2.2152    0.7165   -0.3469 C   0  0  0  1  0  0  0  0  0  0  0  0
   -2.2894    0.0015   -1.6818 N   0  3  0  1  0  0  0  0  0  0  0  0
    0.2570    2.0908    0.3206 H   0  0  0  1  0  0  0  0  0  0  0  0
    2.6073    2.1000   -0.2645 H   0  0  0  1  0  0  0  0  0  0  0  0
    3.7943    0.0034   -0.5501 H   0  0  0  1  0  0  0  0  0  0  0  0
    2.6240   -2.0988   -0.2711 H   0  0  0  1  0  0  0  0  0  0  0  0
    0.2696   -2.1078    0.3150 H   0  0  0  1  0  0  0  0  0  0  0  0
   -1.4804    0.5798    1.6289 H   0  0  0  1  0  0  0  0  0  0  0  0
   -1.7262   -0.9605    0.8409 H   0  0  0  1  0  0  0  0  0  0  0  0
   -1.8092    1.6915   -0.5181 H   0  0  0  1  0  0  0  0  0  0  0  0
   -3.2111    0.8062    0.0340 H   0  0  0  1  0  0  0  0  0  0  0  0
   -1.3263   -0.3001   -1.9718 H   0  0  0  1  0  0  0  0  0  0  0  0
   -2.6850    0.6515   -2.4053 H   0  0  0  1  0  0  0  0  0  0  0  0
   -2.9081   -0.8422   -1.5928 H   0  0  0  1  0  0  0  0  0  0  0  0
  1  2  2  0  0  0  0
  1  6  1  0  0  0  0
  1  7  1  0  0  0  0
  2  3  1  0  0  0  0
  2 10  1  0  0  0  0
  3  4  2  0  0  0  0
  3 11  1  0  0  0  0
  4  5  1  0  0  0  0
  4 12  1  0  0  0  0
  5  6  2  0  0  0  0
  5 13  1  0  0  0  0
  6 14  1  0  0  0  0
  7  8  1  0  0  0  0
  7 15  1  0  0  0  0
  7 16  1  0  0  0  0
  8  9  1  0  0  0  0
  8 17  1  0  0  0  0
  8 18  1  0  0  0  0
  9 19  1  0  0  0  0
  9 20  1  0  0  0  0
  9 21  1  0  0  0  0
M  END
> <ConfClashScore>
0 

> <ConfOneFourInteractionScore>
-1 

> <ConfScore>
-0.11836 

> <ConfScorePBest>
0.0336375 

> <ConfTolerance>
0.262332 

> <FORMULA>
C8H12N+

> <OPENEYE_INCHI>
InChI=1S/C8H11N/c9-7-6-8-4-2-1-3-5-8/h1-5H,6-7,9H2/p+1

> <OPENEYE_INCHIKEY>
BHHGXPLMPWCGHP-UHFFFAOYSA-O

> <OPENEYE_ISO_SMILES>
c1ccc(cc1)CC[NH3+]

$$$$
PEA
  -OEChem-06042117583D

 21 21  0  0  0  0  0  0  0  0999 V2000
    0.0950    0.0084    0.3545 C   0  0  0  1  0  0  0  0  0  0  0  0
    0.7724    1.2066    0.1906 C   0  0  0  1  0  0  0  0  0  0  0  0
    2.1141    1.2024   -0.1410 C   0  0  0  1  0  0  0  0  0  0  0  0
    2.7837   -0.0003   -0.3045 C   0  0  0  1  0  0  0  0  0  0  0  0
    2.1085   -1.1952   -0.1411 C   0  0  0  1  0  0  0  0  0  0  0  0
    0.7628   -1.1907    0.1916 C   0  0  0  1  0  0  0  0  0  0  0  0
   -1.3716   -0.0497    0.7110 C   0  0  0  1  0  0  0  0  0  0  0  0
   -1.7222    0.7900    1.9286 C   0  0  0  1  0  0  0  0  0  0  0  0
   -1.1523    0.3034    3.2466 N   0  3  0  1  0  0  0  0  0  0  0  0
    0.2710    2.1089    0.3172 H   0  0  0  1  0  0  0  0  0  0  0  0
    2.6213    2.1014   -0.2680 H   0  0  0  1  0  0  0  0  0  0  0  0
    3.7943   -0.0036   -0.5501 H   0  0  0  1  0  0  0  0  0  0  0  0
    2.6099   -2.0975   -0.2676 H   0  0  0  1  0  0  0  0  0  0  0  0
    0.2556   -2.0897    0.3185 H   0  0  0  1  0  0  0  0  0  0  0  0
   -1.6331   -1.0675    0.9124 H   0  0  0  1  0  0  0  0  0  0  0  0
   -1.9392    0.3065   -0.1232 H   0  0  0  1  0  0  0  0  0  0  0  0
   -2.7882    0.8101    2.0185 H   0  0  0  1  0  0  0  0  0  0  0  0
   -1.3592    1.7822    1.7595 H   0  0  0  1  0  0  0  0  0  0  0  0
   -0.1340    0.0773    3.1260 H   0  0  0  1  0  0  0  0  0  0  0  0
   -1.6679   -0.5581    3.5538 H   0  0  0  1  0  0  0  0  0  0  0  0
   -1.2602    1.0542    3.9727 H   0  0  0  1  0  0  0  0  0  0  0  0
  1  2  2  0  0  0  0
  1  6  1  0  0  0  0
  1  7  1  0  0  0  0
  2  3  1  0  0  0  0
  2 10  1  0  0  0  0
  3  4  2  0  0  0  0
  3 11  1  0  0  0  0
  4  5  1  0  0  0  0
  4 12  1  0  0  0  0
  5  6  2  0  0  0  0
  5 13  1  0  0  0  0
  6 14  1  0  0  0  0
  7  8  1  0  0  0  0
  7 15  1  0  0  0  0
  7 16  1  0  0  0  0
  8  9  1  0  0  0  0
  8 17  1  0  0  0  0
  8 18  1  0  0  0  0
  9 19  1  0  0  0  0
  9 20  1  0  0  0  0
  9 21  1  0  0  0  0
M  END
> <ConfClashScore>
0 

> <ConfOneFourInteractionScore>
-1 

> <ConfScore>
-0.0475218 

> <ConfScorePBest>
0.032365 

> <ConfTolerance>
0.122707 

> <FORMULA>
C8H12N+

> <OPENEYE_INCHI>
InChI=1S/C8H11N/c9-7-6-8-4-2-1-3-5-8/h1-5H,6-7,9H2/p+1

> <OPENEYE_INCHIKEY>
BHHGXPLMPWCGHP-UHFFFAOYSA-O

> <OPENEYE_ISO_SMILES>
c1ccc(cc1)CC[NH3+]

$$$$
PEA
  -OEChem-06042117583D

 21 21  0  0  0  0  0  0  0  0999 V2000
    0.0951   -0.0016    0.3545 C   0  0  0  1  0  0  0  0  0  0  0  0
    0.7684    1.1991    0.1916 C   0  0  0  1  0  0  0  0  0  0  0  0
    2.1101    1.1998   -0.1401 C   0  0  0  1  0  0  0  0  0  0  0  0
    2.7838   -0.0004   -0.3045 C   0  0  0  1  0  0  0  0  0  0  0  0
    2.1127   -1.1977   -0.1421 C   0  0  0  1  0  0  0  0  0  0  0  0
    0.7670   -1.1982    0.1905 C   0  0  0  1  0  0  0  0  0  0  0  0
   -1.3726   -0.0029    0.7112 C   0  0  0  1  0  0  0  0  0  0  0  0
   -1.7669   -0.5748    2.0632 C   0  0  0  1  0  0  0  0  0  0  0  0
   -3.2448   -0.8574    2.2498 N   0  3  0  1  0  0  0  0  0  0  0  0
    0.2638    2.0996    0.3189 H   0  0  0  1  0  0  0  0  0  0  0  0
    2.6141    2.1007   -0.2662 H   0  0  0  1  0  0  0  0  0  0  0  0
    3.7944    0.0000   -0.5501 H   0  0  0  1  0  0  0  0  0  0  0  0
    2.6173   -2.0982   -0.2694 H   0  0  0  1  0  0  0  0  0  0  0  0
    0.2629   -2.0991    0.3167 H   0  0  0  1  0  0  0  0  0  0  0  0
   -1.8837   -0.5708   -0.0380 H   0  0  0  1  0  0  0  0  0  0  0  0
   -1.7101    1.0121    0.6822 H   0  0  0  1  0  0  0  0  0  0  0  0
   -1.4680    0.1244    2.8160 H   0  0  0  1  0  0  0  0  0  0  0  0
   -1.2365   -1.4942    2.1989 H   0  0  0  1  0  0  0  0  0  0  0  0
   -3.8074   -0.1165    1.7629 H   0  0  0  1  0  0  0  0  0  0  0  0
   -3.4748   -0.8544    3.2743 H   0  0  0  1  0  0  0  0  0  0  0  0
   -3.4755   -1.7968    1.8415 H   0  0  0  1  0  0  0  0  0  0  0  0
  1  2  2  0  0  0  0
  1  6  1  0  0  0  0
  1  7  1  0  0  0  0
  2  3  1  0  0  0  0
  2 10  1  0  0  0  0
  3  4  2  0  0  0  0
  3 11  1  0  0  0  0
  4  5  1  0  0  0  0
  4 12  1  0  0  0  0
  5  6  2  0  0  0  0
  5 13  1  0  0  0  0
  6 14  1  0  0  0  0
  7  8  1  0  0  0  0
  7 15  1  0  0  0  0
  7 16  1  0  0  0  0
  8  9  1  0  0  0  0
  8 17  1  0  0  0  0
  8 18  1  0  0  0  0
  9 19  1  0  0  0  0
  9 20  1  0  0  0  0
  9 21  1  0  0  0  0
M  END
> <ConfClashScore>
0 

> <ConfOneFourInteractionScore>
-1 

> <ConfScore>
-0.0307655 

> <ConfScorePBest>
0.0310925 

> <ConfTolerance>
0.177327 

> <FORMULA>
C8H12N+

> <OPENEYE_INCHI>
InChI=1S/C8H11N/c9-7-6-8-4-2-1-3-5-8/h1-5H,6-7,9H2/p+1

> <OPENEYE_INCHIKEY>
BHHGXPLMPWCGHP-UHFFFAOYSA-O

> <OPENEYE_ISO_SMILES>
c1ccc(cc1)CC[NH3+]

$$$$
PEA
  -OEChem-06042117583D

 21 21  0  0  0  0  0  0  0  0999 V2000
    0.0950   -0.0109    0.3545 C   0  0  0  1  0  0  0  0  0  0  0  0
    0.7644    1.1921    0.1925 C   0  0  0  1  0  0  0  0  0  0  0  0
    2.1061    1.1974   -0.1391 C   0  0  0  1  0  0  0  0  0  0  0  0
    2.7837   -0.0005   -0.3045 C   0  0  0  1  0  0  0  0  0  0  0  0
    2.1165   -1.2001   -0.1430 C   0  0  0  1  0  0  0  0  0  0  0  0
    0.7708   -1.2052    0.1896 C   0  0  0  1  0  0  0  0  0  0  0  0
   -1.3718    0.0407    0.7111 C   0  0  0  1  0  0  0  0  0  0  0  0
   -2.2617   -0.5620   -0.3530 C   0  0  0  1  0  0  0  0  0  0  0  0
   -2.0286   -2.0308   -0.6479 N   0  3  0  1  0  0  0  0  0  0  0  0
    0.2570    2.0908    0.3206 H   0  0  0  1  0  0  0  0  0  0  0  0
    2.6073    2.1000   -0.2645 H   0  0  0  1  0  0  0  0  0  0  0  0
    3.7943    0.0034   -0.5501 H   0  0  0  1  0  0  0  0  0  0  0  0
    2.6240   -2.0988   -0.2711 H   0  0  0  1  0  0  0  0  0  0  0  0
    0.2696   -2.1078    0.3150 H   0  0  0  1  0  0  0  0  0  0  0  0
   -1.6526    1.0637    0.8505 H   0  0  0  1  0  0  0  0  0  0  0  0
   -1.5196   -0.4978    1.6238 H   0  0  0  1  0  0  0  0  0  0  0  0
   -2.1065   -0.0157   -1.2598 H   0  0  0  1  0  0  0  0  0  0  0  0
   -3.2773   -0.4472   -0.0363 H   0  0  0  1  0  0  0  0  0  0  0  0
   -2.2554   -2.5998    0.2049 H   0  0  0  1  0  0  0  0  0  0  0  0
   -1.0228   -2.1795   -0.9102 H   0  0  0  1  0  0  0  0  0  0  0  0
   -2.6460   -2.3303   -1.4426 H   0  0  0  1  0  0  0  0  0  0  0  0
  1  2  2  0  0  0  0
  1  6  1  0  0  0  0
  1  7  1  0  0  0  0
  2  3  1  0  0  0  0
  2 10  1  0  0  0  0
  3  4  2  0  0  0  0
  3 11  1  0  0  0  0
  4  5  1  0  0  0  0
  4 12  1  0  0  0  0
  5  6  2  0  0  0  0
  5 13  1  0  0  0  0
  6 14  1  0  0  0  0
  7  8  1  0  0  0  0
  7 15  1  0  0  0  0
  7 16  1  0  0  0  0
  8  9  1  0  0  0  0
  8 17  1  0  0  0  0
  8 18  1  0  0  0  0
  9 19  1  0  0  0  0
  9 20  1  0  0  0  0
  9 21  1  0  0  0  0
M  END
> <ConfClashScore>
0 

> <ConfOneFourInteractionScore>
-1 

> <ConfScore>
-0.017133 

> <ConfScorePBest>
0.02982 

> <ConfTolerance>
0.402828 

> <FORMULA>
C8H12N+

> <OPENEYE_INCHI>
InChI=1S/C8H11N/c9-7-6-8-4-2-1-3-5-8/h1-5H,6-7,9H2/p+1

> <OPENEYE_INCHIKEY>
BHHGXPLMPWCGHP-UHFFFAOYSA-O

> <OPENEYE_ISO_SMILES>
c1ccc(cc1)CC[NH3+]

$$$$
PEA
  -OEChem-06042117583D

 21 21  0  0  0  0  0  0  0  0999 V2000
    0.0951   -0.0016    0.3545 C   0  0  0  1  0  0  0  0  0  0  0  0
    0.7684    1.1991    0.1916 C   0  0  0  1  0  0  0  0  0  0  0  0
    2.1101    1.1998   -0.1401 C   0  0  0  1  0  0  0  0  0  0  0  0
    2.7838   -0.0004   -0.3045 C   0  0  0  1  0  0  0  0  0  0  0  0
    2.1127   -1.1977   -0.1421 C   0  0  0  1  0  0  0  0  0  0  0  0
    0.7670   -1.1982    0.1905 C   0  0  0  1  0  0  0  0  0  0  0  0
   -1.3726   -0.0029    0.7112 C   0  0  0  1  0  0  0  0  0  0  0  0
   -1.6912   -0.3439    2.1578 C   0  0  0  1  0  0  0  0  0  0  0  0
   -3.0908    0.0265    2.5256 N   0  3  0  1  0  0  0  0  0  0  0  0
    0.2638    2.0996    0.3189 H   0  0  0  1  0  0  0  0  0  0  0  0
    2.6141    2.1007   -0.2662 H   0  0  0  1  0  0  0  0  0  0  0  0
    3.7944    0.0000   -0.5501 H   0  0  0  1  0  0  0  0  0  0  0  0
    2.6173   -2.0982   -0.2694 H   0  0  0  1  0  0  0  0  0  0  0  0
    0.2629   -2.0991    0.3167 H   0  0  0  1  0  0  0  0  0  0  0  0
   -1.8633   -0.7204    0.0872 H   0  0  0  1  0  0  0  0  0  0  0  0
   -1.7625    0.9727    0.5085 H   0  0  0  1  0  0  0  0  0  0  0  0
   -1.0149    0.1870    2.7947 H   0  0  0  1  0  0  0  0  0  0  0  0
   -1.5640   -1.3967    2.3004 H   0  0  0  1  0  0  0  0  0  0  0  0
   -3.2540   -0.1849    3.5411 H   0  0  0  1  0  0  0  0  0  0  0  0
   -3.7644   -0.5270    1.9405 H   0  0  0  1  0  0  0  0  0  0  0  0
   -3.2378    1.0519    2.3539 H   0  0  0  1  0  0  0  0  0  0  0  0
  1  2  2  0  0  0  0
  1  6  1  0  0  0  0
  1  7  1  0  0  0  0
  2  3  1  0  0  0  0
  2 10  1  0  0  0  0
  3  4  2  0  0  0  0
  3 11  1  0  0  0  0
  4  5  1  0  0  0  0
  4 12  1  0  0  0  0
  5  6  2  0  0  0  0
  5 13  1  0  0  0  0
  6 14  1  0  0  0  0
  7  8  1  0  0  0  0
  7 15  1  0  0  0  0
  7 16  1  0  0  0  0
  8  9  1  0  0  0  0
  8 17  1  0  0  0  0
  8 18  1  0  0  0  0
  9 19  1  0  0  0  0
  9 20  1  0  0  0  0
  9 21  1  0  0  0  0
M  END
> <ConfClashScore>
0 

> <ConfOneFourInteractionScore>
-1 

> <ConfScore>
0.0824112 

> <ConfScorePBest>
0.0285475 

> <ConfTolerance>
0.35219 

> <FORMULA>
C8H12N+

> <OPENEYE_INCHI>
InChI=1S/C8H11N/c9-7-6-8-4-2-1-3-5-8/h1-5H,6-7,9H2/p+1

> <OPENEYE_INCHIKEY>
BHHGXPLMPWCGHP-UHFFFAOYSA-O

> <OPENEYE_ISO_SMILES>
c1ccc(cc1)CC[NH3+]

$$$$
PEA
  -OEChem-06042117583D

 21 21  0  0  0  0  0  0  0  0999 V2000
    0.0951   -0.0016    0.3545 C   0  0  0  1  0  0  0  0  0  0  0  0
    0.7684    1.1991    0.1916 C   0  0  0  1  0  0  0  0  0  0  0  0
    2.1101    1.1998   -0.1401 C   0  0  0  1  0  0  0  0  0  0  0  0
    2.7838   -0.0004   -0.3045 C   0  0  0  1  0  0  0  0  0  0  0  0
    2.1127   -1.1977   -0.1421 C   0  0  0  1  0  0  0  0  0  0  0  0
    0.7670   -1.1982    0.1905 C   0  0  0  1  0  0  0  0  0  0  0  0
   -1.3726   -0.0029    0.7112 C   0  0  0  1  0  0  0  0  0  0  0  0
   -2.0888   -1.2593    0.2686 C   0  0  0  1  0  0  0  0  0  0  0  0
   -3.5726   -1.3108    0.5753 N   0  3  0  1  0  0  0  0  0  0  0  0
    0.2638    2.0996    0.3189 H   0  0  0  1  0  0  0  0  0  0  0  0
    2.6141    2.1007   -0.2662 H   0  0  0  1  0  0  0  0  0  0  0  0
    3.7944    0.0000   -0.5501 H   0  0  0  1  0  0  0  0  0  0  0  0
    2.6173   -2.0982   -0.2694 H   0  0  0  1  0  0  0  0  0  0  0  0
    0.2629   -2.0991    0.3167 H   0  0  0  1  0  0  0  0  0  0  0  0
   -1.8381    0.8380    0.2411 H   0  0  0  1  0  0  0  0  0  0  0  0
   -1.4650    0.0854    1.7736 H   0  0  0  1  0  0  0  0  0  0  0  0
   -1.6234   -2.0916    0.7540 H   0  0  0  1  0  0  0  0  0  0  0  0
   -1.9685   -1.3507   -0.7907 H   0  0  0  1  0  0  0  0  0  0  0  0
   -4.0173   -0.3974    0.3099 H   0  0  0  1  0  0  0  0  0  0  0  0
   -3.7118   -1.4824    1.6018 H   0  0  0  1  0  0  0  0  0  0  0  0
   -4.0164   -2.0883    0.0267 H   0  0  0  1  0  0  0  0  0  0  0  0
  1  2  2  0  0  0  0
  1  6  1  0  0  0  0
  1  7  1  0  0  0  0
  2  3  1  0  0  0  0
  2 10  1  0  0  0  0
  3  4  2  0  0  0  0
  3 11  1  0  0  0  0
  4  5  1  0  0  0  0
  4 12  1  0  0  0  0
  5  6  2  0  0  0  0
  5 13  1  0  0  0  0
  6 14  1  0  0  0  0
  7  8  1  0  0  0  0
  7 15  1  0  0  0  0
  7 16  1  0  0  0  0
  8  9  1  0  0  0  0
  8 17  1  0  0  0  0
  8 18  1  0  0  0  0
  9 19  1  0  0  0  0
  9 20  1  0  0  0  0
  9 21  1  0  0  0  0
M  END
> <ConfClashScore>
0 

> <ConfOneFourInteractionScore>
-0.988425 

> <ConfScore>
0.0931708 

> <ConfScorePBest>
0.027275 

> <ConfTolerance>
0.266097 

> <FORMULA>
C8H12N+

> <OPENEYE_INCHI>
InChI=1S/C8H11N/c9-7-6-8-4-2-1-3-5-8/h1-5H,6-7,9H2/p+1

> <OPENEYE_INCHIKEY>
BHHGXPLMPWCGHP-UHFFFAOYSA-O

> <OPENEYE_ISO_SMILES>
c1ccc(cc1)CC[NH3+]

$$$$
PEA
  -OEChem-06042117583D

 21 21  0  0  0  0  0  0  0  0999 V2000
    0.0951   -0.0016    0.3545 C   0  0  0  1  0  0  0  0  0  0  0  0
    0.7684    1.1991    0.1916 C   0  0  0  1  0  0  0  0  0  0  0  0
    2.1101    1.1998   -0.1401 C   0  0  0  1  0  0  0  0  0  0  0  0
    2.7838   -0.0004   -0.3045 C   0  0  0  1  0  0  0  0  0  0  0  0
    2.1127   -1.1977   -0.1421 C   0  0  0  1  0  0  0  0  0  0  0  0
    0.7670   -1.1982    0.1905 C   0  0  0  1  0  0  0  0  0  0  0  0
   -1.3726   -0.0029    0.7112 C   0  0  0  1  0  0  0  0  0  0  0  0
   -1.6947    0.3804    2.1464 C   0  0  0  1  0  0  0  0  0  0  0  0
   -0.8220   -0.3855    3.0798 N   0  3  0  1  0  0  0  0  0  0  0  0
    0.2638    2.0996    0.3189 H   0  0  0  1  0  0  0  0  0  0  0  0
    2.6141    2.1007   -0.2662 H   0  0  0  1  0  0  0  0  0  0  0  0
    3.7944    0.0000   -0.5501 H   0  0  0  1  0  0  0  0  0  0  0  0
    2.6173   -2.0982   -0.2694 H   0  0  0  1  0  0  0  0  0  0  0  0
    0.2629   -2.0991    0.3167 H   0  0  0  1  0  0  0  0  0  0  0  0
   -1.7532   -0.9881    0.5394 H   0  0  0  1  0  0  0  0  0  0  0  0
   -1.8700    0.6898    0.0650 H   0  0  0  1  0  0  0  0  0  0  0  0
   -2.7200    0.1549    2.3529 H   0  0  0  1  0  0  0  0  0  0  0  0
   -1.5253    1.4284    2.2809 H   0  0  0  1  0  0  0  0  0  0  0  0
   -0.6530   -1.3468    2.6925 H   0  0  0  1  0  0  0  0  0  0  0  0
   -1.2931   -0.4631    4.0149 H   0  0  0  1  0  0  0  0  0  0  0  0
    0.0954    0.1134    3.1898 H   0  0  0  1  0  0  0  0  0  0  0  0
  1  2  2  0  0  0  0
  1  6  1  0  0  0  0
  1  7  1  0  0  0  0
  2  3  1  0  0  0  0
  2 10  1  0  0  0  0
  3  4  2  0  0  0  0
  3 11  1  0  0  0  0
  4  5  1  0  0  0  0
  4 12  1  0  0  0  0
  5  6  2  0  0  0  0
  5 13  1  0  0  0  0
  6 14  1  0  0  0  0
  7  8  1  0  0  0  0
  7 15  1  0  0  0  0
  7 16  1  0  0  0  0
  8  9  1  0  0  0  0
  8 17  1  0  0  0  0
  8 18  1  0  0  0  0
  9 19  1  0  0  0  0
  9 20  1  0  0  0  0
  9 21  1  0  0  0  0
M  END
> <ConfClashScore>
0 

> <ConfOneFourInteractionScore>
-1 

> <ConfScore>
0.217679 

> <ConfScorePBest>
0.0260025 

> <ConfTolerance>
0.418815 

> <FORMULA>
C8H12N+

> <OPENEYE_INCHI>
InChI=1S/C8H11N/c9-7-6-8-4-2-1-3-5-8/h1-5H,6-7,9H2/p+1

> <OPENEYE_INCHIKEY>
BHHGXPLMPWCGHP-UHFFFAOYSA-O

> <OPENEYE_ISO_SMILES>
c1ccc(cc1)CC[NH3+]

$$$$
PEA
  -OEChem-06042117583D

 21 21  0  0  0  0  0  0  0  0999 V2000
    0.0951   -0.0016    0.3545 C   0  0  0  1  0  0  0  0  0  0  0  0
    0.7684    1.1991    0.1916 C   0  0  0  1  0  0  0  0  0  0  0  0
    2.1101    1.1998   -0.1401 C   0  0  0  1  0  0  0  0  0  0  0  0
    2.7838   -0.0004   -0.3045 C   0  0  0  1  0  0  0  0  0  0  0  0
    2.1127   -1.1977   -0.1421 C   0  0  0  1  0  0  0  0  0  0  0  0
    0.7670   -1.1982    0.1905 C   0  0  0  1  0  0  0  0  0  0  0  0
   -1.3726   -0.0029    0.7112 C   0  0  0  1  0  0  0  0  0  0  0  0
   -1.7905   -1.2277    1.5085 C   0  0  0  1  0  0  0  0  0  0  0  0
   -1.1549   -1.3668    2.8779 N   0  3  0  1  0  0  0  0  0  0  0  0
    0.2638    2.0996    0.3189 H   0  0  0  1  0  0  0  0  0  0  0  0
    2.6141    2.1007   -0.2662 H   0  0  0  1  0  0  0  0  0  0  0  0
    3.7944    0.0000   -0.5501 H   0  0  0  1  0  0  0  0  0  0  0  0
    2.6173   -2.0982   -0.2694 H   0  0  0  1  0  0  0  0  0  0  0  0
    0.2629   -2.0991    0.3167 H   0  0  0  1  0  0  0  0  0  0  0  0
   -1.9430    0.0254   -0.1936 H   0  0  0  1  0  0  0  0  0  0  0  0
   -1.5825    0.8701    1.2932 H   0  0  0  1  0  0  0  0  0  0  0  0
   -1.5341   -2.0953    0.9372 H   0  0  0  1  0  0  0  0  0  0  0  0
   -2.8515   -1.1879    1.6408 H   0  0  0  1  0  0  0  0  0  0  0  0
   -1.3553   -0.5070    3.4463 H   0  0  0  1  0  0  0  0  0  0  0  0
   -0.1166   -1.4816    2.7716 H   0  0  0  1  0  0  0  0  0  0  0  0
   -1.5526   -2.2081    3.3643 H   0  0  0  1  0  0  0  0  0  0  0  0
  1  2  2  0  0  0  0
  1  6  1  0  0  0  0
  1  7  1  0  0  0  0
  2  3  1  0  0  0  0
  2 10  1  0  0  0  0
  3  4  2  0  0  0  0
  3 11  1  0  0  0  0
  4  5  1  0  0  0  0
  4 12  1  0  0  0  0
  5  6  2  0  0  0  0
  5 13  1  0  0  0  0
  6 14  1  0  0  0  0
  7  8  1  0  0  0  0
  7 15  1  0  0  0  0
  7 16  1  0  0  0  0
  8  9  1  0  0  0  0
  8 17  1  0  0  0  0
  8 18  1  0  0  0  0
  9 19  1  0  0  0  0
  9 20  1  0  0  0  0
  9 21  1  0  0  0  0
M  END
> <ConfClashScore>
0 

> <ConfOneFourInteractionScore>
-0.988425 

> <ConfScore>
0.411267 

> <ConfScorePBest>
0.02473 

> <ConfTolerance>
0.795817 

> <FORMULA>
C8H12N+

> <OPENEYE_INCHI>
InChI=1S/C8H11N/c9-7-6-8-4-2-1-3-5-8/h1-5H,6-7,9H2/p+1

> <OPENEYE_INCHIKEY>
BHHGXPLMPWCGHP-UHFFFAOYSA-O

> <OPENEYE_ISO_SMILES>
c1ccc(cc1)CC[NH3+]

$$$$
