PEA
  -OEChem-06042118023D

 21 21  0     0  0  0  0  0  0999 V2000
    0.0930   -0.0010    0.3540 C   0  0  0  0  0  0  0  0  0  0  0  0
    0.7640    1.1970    0.1910 C   0  0  0  0  0  0  0  0  0  0  0  0
    2.1070    1.1980   -0.1380 C   0  0  0  0  0  0  0  0  0  0  0  0
    2.7780    0.0010   -0.3040 C   0  0  0  0  0  0  0  0  0  0  0  0
    2.1070   -1.1970   -0.1410 C   0  0  0  0  0  0  0  0  0  0  0  0
    0.7660   -1.1970    0.1930 C   0  0  0  0  0  0  0  0  0  0  0  0
   -1.3700   -0.0010    0.7130 C   0  0  0  0  0  0  0  0  0  0  0  0
   -2.2090    0.0010   -0.5670 C   0  0  0  0  0  0  0  0  0  0  0  0
   -3.6360    0.0000   -0.2170 N   0  3  0  0  0  0  0  0  0  0  0  0
    0.2400    2.1320    0.3210 H   0  0  0  0  0  0  0  0  0  0  0  0
    2.6310    2.1330   -0.2650 H   0  0  0  0  0  0  0  0  0  0  0  0
    3.8270    0.0010   -0.5620 H   0  0  0  0  0  0  0  0  0  0  0  0
    2.6320   -2.1320   -0.2710 H   0  0  0  0  0  0  0  0  0  0  0  0
    0.2420   -2.1330    0.3200 H   0  0  0  0  0  0  0  0  0  0  0  0
   -1.6010    0.8880    1.3000 H   0  0  0  0  0  0  0  0  0  0  0  0
   -1.6010   -0.8920    1.2970 H   0  0  0  0  0  0  0  0  0  0  0  0
   -1.9790   -0.8880   -1.1540 H   0  0  0  0  0  0  0  0  0  0  0  0
   -1.9790    0.8920   -1.1510 H   0  0  0  0  0  0  0  0  0  0  0  0
   -4.1890    0.0020   -1.0610 H   0  0  0  0  0  0  0  0  0  0  0  0
   -3.8490    0.8230    0.3270 H   0  0  0  0  0  0  0  0  0  0  0  0
   -3.8490   -0.8250    0.3240 H   0  0  0  0  0  0  0  0  0  0  0  0
  1  2  2  0  0  0  0
  1  6  1  0  0  0  0
  1  7  1  0  0  0  0
  2  3  1  0  0  0  0
  2 10  1  0  0  0  0
  3  4  2  0  0  0  0
  3 11  1  0  0  0  0
  4  5  1  0  0  0  0
  4 12  1  0  0  0  0
  5  6  2  0  0  0  0
  5 13  1  0  0  0  0
  6 14  1  0  0  0  0
  7  8  1  0  0  0  0
  7 15  1  0  0  0  0
  7 16  1  0  0  0  0
  8  9  1  0  0  0  0
  8 17  1  0  0  0  0
  8 18  1  0  0  0  0
  9 19  1  0  0  0  0
  9 20  1  0  0  0  0
  9 21  1  0  0  0  0
M  CHG  1   9   1
M  END
> <OPENEYE_ISO_SMILES>
c1ccc(cc1)CC[NH3+]

> <OPENEYE_INCHI>
InChI=1S/C8H11N/c9-7-6-8-4-2-1-3-5-8/h1-5H,6-7,9H2/p+1

> <OPENEYE_INCHIKEY>
BHHGXPLMPWCGHP-UHFFFAOYSA-O

> <FORMULA>
C8H12N+

$$$$
