@<TRIPOS>MOLECULE
PEA
 21 21 0 0 0
SMALL
GASTEIGER

@<TRIPOS>ATOM
      1 C1'        93.9350   77.8830  -16.7310 C.ar  1  PEA     -0.0492
      2 C6'        94.8120   78.2330  -17.7540 C.ar  1  PEA     -0.0586
      3 C5'        94.6460   77.7290  -19.0430 C.ar  1  PEA     -0.0615
      4 C4'        93.5850   76.8640  -19.3160 C.ar  1  PEA     -0.0617
      5 C3'        92.7040   76.5110  -18.3000 C.ar  1  PEA     -0.0615
      6 C2'        92.8830   77.0210  -17.0150 C.ar  1  PEA     -0.0586
      7 C2         94.1270   78.4200  -15.3370 C.3   1  PEA     -0.0435
      8 C1         94.6600   79.8400  -15.2930 C.3   1  PEA     -0.0922
      9 N          94.8930   80.2770  -13.8970 N.4   1  PEA      0.3783
     10 H6'        95.6310   78.9020  -17.5380 H     1  PEA      0.0620
     11 H5'        95.3340   78.0050  -19.8280 H     1  PEA      0.0618
     12 H4'        93.4460   76.4690  -20.3120 H     1  PEA      0.0618
     13 H3'        91.8840   75.8390  -18.5060 H     1  PEA      0.0618
     14 H2'        92.1860   76.7450  -16.2370 H     1  PEA      0.0620
     15 H21        94.8380   77.7920  -14.8000 H     1  PEA      0.0295
     16 H22        93.1720   78.4180  -14.8120 H     1  PEA      0.0295
     17 H11        93.9380   80.5140  -15.7530 H     1  PEA      0.0052
     18 H12        95.6030   79.8910  -15.8370 H     1  PEA      0.0052
     19 HN1        95.2470   81.2220  -13.8950 H     1  PEA     -0.0901
     20 HN2        95.5670   79.6640  -13.4610 H     1  PEA     -0.0901
     21 HN3        94.0250   80.2410  -13.3840 H     1  PEA     -0.0901
@<TRIPOS>BOND
     1    12     4    1
     2    11     3    1
     3     4     3   ar
     4     4     5   ar
     5     3     2   ar
     6    13     5    1
     7     5     6   ar
     8     2    10    1
     9     2     1   ar
    10     6     1   ar
    11     6    14    1
    12     1     7    1
    13    18     8    1
    14    17     8    1
    15     7     8    1
    16     7    16    1
    17     7    15    1
    18     8     9    1
    19     9    19    1
    20     9    20    1
    21     9    21    1
