MODEL 1
REMARK VINA RESULT:       0.4      0.000      0.000
REMARK  3 active torsions:
REMARK  status: ('A' for Active; 'I' for Inactive)
REMARK    1  A    between atoms: C_1  and  C_7 
REMARK    2  A    between atoms: C_7  and  C_8 
REMARK    3  A    between atoms: C_8  and  N_9 
ROOT
HETATM    1  C           0      94.512  80.436 -14.985  0.00  0.00    -0.057 A 
HETATM    2  C           0      94.524  79.706 -16.160  0.00  0.00     0.007 A 
HETATM    3  C           0      94.325  78.339 -16.127  0.00  0.00     0.001 A 
HETATM    4  C           0      94.114  77.700 -14.918  0.00  0.00     0.000 A 
HETATM    5  C           0      94.104  78.429 -13.744  0.00  0.00     0.001 A 
HETATM    6  C           0      94.308  79.796 -13.777  0.00  0.00     0.007 A 
ENDROOT
BRANCH   1   7
HETATM    7  C           0      94.729  81.925 -15.022  0.00  0.00     0.065 C 
BRANCH   7   8
HETATM    8  C           0      96.177  82.220 -15.419  0.00  0.00     0.234 C 
BRANCH   8   9
HETATM    9  N           0      97.014  81.049 -15.122  0.00  0.00    -0.079 N 
HETATM   10  H           0      97.149  80.976 -14.125  0.00  0.00     0.274 HD
HETATM   11  H           0      97.910  81.152 -15.577  0.00  0.00     0.274 HD
HETATM   12  H           0      96.558  80.215 -15.463  0.00  0.00     0.274 HD
ENDBRANCH   8   9
ENDBRANCH   7   8
ENDBRANCH   1   7
TORSDOF 3
ENDMDL
