REMARK  3 active torsions:
REMARK  status: ('A' for Active; 'I' for Inactive)
REMARK    1  A    between atoms: C_1  and  C_7 
REMARK    2  A    between atoms: C_7  and  C_8 
REMARK    3  A    between atoms: C_8  and  N_9 
ROOT
HETATM    1  C           0     -97.289 236.863   5.392  0.00  0.00    -0.057 A 
HETATM    2  C           0     -95.933 237.056   5.587  0.00  0.00     0.007 A 
HETATM    3  C           0     -95.020 236.230   4.959  0.00  0.00     0.001 A 
HETATM    4  C           0     -95.462 235.210   4.136  0.00  0.00     0.000 A 
HETATM    5  C           0     -96.817 235.017   3.942  0.00  0.00     0.001 A 
HETATM    6  C           0     -97.730 235.840   4.574  0.00  0.00     0.007 A 
ENDROOT
BRANCH   1   7
HETATM    7  C           0     -98.283 237.763   6.076  0.00  0.00     0.065 C 
BRANCH   7   8
HETATM    8  C           0     -98.585 238.965   5.178  0.00  0.00     0.234 C 
BRANCH   8   9
HETATM    9  N           0     -99.556 239.843   5.846  0.00  0.00    -0.079 N 
HETATM   10  H           0     -99.755 240.636   5.254  0.00  0.00     0.274 HD
HETATM   11  H           0     -99.171 240.165   6.722  0.00  0.00     0.274 HD
HETATM   12  H           0    -100.408 239.331   6.021  0.00  0.00     0.274 HD
ENDBRANCH   8   9
ENDBRANCH   7   8
ENDBRANCH   1   7
TORSDOF 3
